
**** 05/22/18 18:06:47 ******* PSpice Lite (March 2016) ******* ID# 10813 ****

 *----------------------------


 ****     CIRCUIT DESCRIPTION


******************************************************************************



* HightPass 12                          -
*                               -
* Author: Ruben Kindt           -
* Date: 24/04/2018                      -
*----------------------------
*
*--------- MODELS for passive components ---------
.model rmod  res(r = 1k    DEV  5%)
.model cmod  cap(c = 1n    DEV 20%)
.inc OpampIdeal.cir

**** INCLUDING OpampIdeal.cir ****
*
* vcvs opamp model (TL084)
*
* Adc   = 200000   (amplification at DC)
* fu    = 3 MHz    (unity gain frequency)
* f-3dB = 5 Hz = fu/Adc
* Rin   = 1E12 Ohm (input impedance) 
* Rout  = 100 Ohm  (output impedance)

* CONNECTIONS:    NON-INVERTING INPUT
*                  | INVERTING INPUT
*                  | | OUTPUT
*                  | | |
.SUBCKT opampIdeal  1 2 3
E1    3  0    1 2   200000
.ENDS

**** RESUMING AFcheb_zin_ideaal.cir ****
*.inc opamp84VCVS.cir
*.inc TL084.cir

Xopamp1   2 3 4  opampIdeal 
Xopamp21  0 5 6  opampIdeal 
Xopamp22  0 7 8  opampIdeal 
Xopamp23  0 9 10 opampIdeal 


*name knoop1 knoop2 model mulitplier
*EERSTE ORDE 
c1   2   0 cmod  10

r1   1   2 rmod  37
r2   3   0 rmod  130
r3   4   3 rmod  53



*TWEEDE ORDE
cc1   5   6  cmod  1 
cc2   7   8  cmod  1

rr1   4   5  rmod  165
rr2   5   6  rmod  378
rr3   5   10 rmod  165
rr4   6   7  rmod  165
rr5   8   9  rmod  165
rr6   9   10 rmod  165


*--------- testbench BODE & ZIN  --
VAC   1  0  AC 1V
*--------- testbench ZOUT  --------
*VIMP  21  0  0V
*IIMP   0 23  AC 1A
*XIMP  21  0  23 highPass12
*--------- testbench STAP  --------
*VTRAN 1  0  PWL(0 0V 0.5ms 0V 0.501ms 1V 6ms 1V)
**XTRAN 31  0  33 highPass12_100
*--------- ANALYSIS ------------------------------
.AC DEC 100 10HZ 100kHZ
*.MC 10 AC V(8) YMAX LIST OUTPUT ALL
*.TRAN 0.01ms 6ms
*
*--------- RESULTS -------------------------------
.PROBE
.END

**** 05/22/18 18:06:47 ******* PSpice Lite (March 2016) ******* ID# 10813 ****

 *----------------------------


 ****     Resistor MODEL PARAMETERS


******************************************************************************




               rmod            
           R    1.000000E+03 


**** 05/22/18 18:06:47 ******* PSpice Lite (March 2016) ******* ID# 10813 ****

 *----------------------------


 ****     Capacitor MODEL PARAMETERS


******************************************************************************




               cmod            
           C    1.000000E-09 


**** 05/22/18 18:06:47 ******* PSpice Lite (March 2016) ******* ID# 10813 ****

 *----------------------------


 ****     SMALL SIGNAL BIAS SOLUTION       TEMPERATURE =   27.000 DEG C


******************************************************************************



 NODE   VOLTAGE     NODE   VOLTAGE     NODE   VOLTAGE     NODE   VOLTAGE


(    1)    0.0000  (    2)    0.0000  (    3)    0.0000  (    4)    0.0000      

(    5)    0.0000  (    6)    0.0000  (    7)    0.0000  (    8)    0.0000      

(    9)    0.0000  (   10)    0.0000  




    VOLTAGE SOURCE CURRENTS
    NAME         CURRENT

    VAC          0.000E+00

    TOTAL POWER DISSIPATION   0.00E+00  WATTS



          JOB CONCLUDED

**** 05/22/18 18:06:47 ******* PSpice Lite (March 2016) ******* ID# 10813 ****

 *----------------------------


 ****     JOB STATISTICS SUMMARY


******************************************************************************



  Total job time (using Solver 1)   =        0.00
