
**** 05/15/18 22:47:02 ******* PSpice Lite (March 2016) ******* ID# 10813 ****

 *----------------------------


 ****     CIRCUIT DESCRIPTION


******************************************************************************



* HightPass 12                          -
*                               -
* Author: Ruben Kindt           -
* Date: 24/04/2018                      -
*----------------------------
*
*--------- MODELS for passive components ---------
.model rmod  res(r = 1k    DEV  1%)
.model cmod  cap(c = 1n    DEV 1%)
.inc TL084.cir

**** INCLUDING TL084.cir ****
* TL084 OPERATIONAL AMPLIFIER "MACROMODEL" SUBCIRCUIT
* CREATED USING PARTS RELEASE 4.01 ON 06/16/89 AT 13:08
* (REV N/A)      SUPPLY VOLTAGE: +/-15V
* CONNECTIONS:   NON-INVERTING INPUT
*                | INVERTING INPUT
*                | | POSITIVE POWER SUPPLY
*                | | | NEGATIVE POWER SUPPLY
*                | | | | OUTPUT
*                | | | | |
.SUBCKT TL084    1 2 3 4 5
*
  C1   11 12 3.498E-12
  C2    6  7 15.00E-12
  DC    5 53 DX
  DE   54  5 DX
  DLP  90 91 DX
  DLN  92 90 DX
  DP    4  3 DX
  EGND 99  0 POLY(2) (3,0) (4,0) 0 .5 .5
  FB    7 99 POLY(5) VB VC VE VLP VLN 0 4.715E6 -5E6 5E6 5E6 -5E6
  GA    6  0 11 12 282.8E-6
  GCM   0  6 10 99 8.942E-9
  ISS   3 10 DC 195.0E-6
  HLIM 90  0 VLIM 1K
  J1   11  2 10 JX
  J2   12  1 10 JX
  R2    6  9 100.0E3
  RD1   4 11 3.536E3
  RD2   4 12 3.536E3
  RO1   8  5 150
  RO2   7 99 150
  RP    3  4 2.143E3
  RSS  10 99 1.026E6
  VB    9  0 DC 0
  VC    3 53 DC 2.200
  VE   54  4 DC 2.200
  VLIM  7  8 DC 0
  VLP  91  0 DC 25
  VLN   0 92 DC 25
.MODEL DX D(IS=800.0E-18)
.MODEL JX PJF(IS=15.00E-12 BETA=270.1E-6 VTO=-1)
.ENDS

**** RESUMING AFtrap_12_mcr1_tl084.cir ****
*--------- NETLISTS ------------------------------
*--- netlist bridged T-network - H(fn) = 1/100 ---
*.SUBCKT highPass12 1 100 5
Vcc 20 0  DC  15V
Vee 30 0  DC -15V
* CONNECTIONS:   NON-INVERTING INPUT
*                | INVERTING INPUT
*                | | POSITIVE POWER SUPPLY
*                | | | NEGATIVE POWER SUPPLY
*                | | | | OUTPUT
*                | | | | 


Xopamp1  7  2  20  30  5 TL084  
Xopamp2  0  6  20  30  8 TL084  
Xopamp3  0  9  20  30  4 TL084  
*name knoop1 knoop2 model mulitplier
r1   5   6 rmod  100
r2   8   9 rmod  100
r3   1   2 rmod  1
r4   7   0 rmod  1
r5   2   4 rmod  2
r6   2   5 rmod  2
r7   7   8 rmod  24.5

c1   6   8 cmod  1
c2   9   4 cmod  2.53 
*.ends



*--------- testbench BODE & ZIN (H(fn) = 1/100) --
VAC   1  0  AC 1V
*XAC   1  0  15 highPass12
*--------- testbench ZOUT (H(fn) = 1/100) --------
*VIMP  21  0  0V
*IIMP   0 23  AC 1A
*XIMP  21  0  23 tnetwork_h100
*--------- testbench STAP (H(fn) = 1/100) --------
**VTRAN 1  0  PWL(0 0V 0.5ms 0V 0.501ms 1V 6ms 1V)
**XTRAN 31  0  33 tnetwork_h100
*--------- testbench BODE & ZIN (H(fn) = 1/20) ---
*VACh20 41  0  AC 1V
*XACh20 41  0  43 tnetwork_h20
*
*--------- ANALYSIS ------------------------------
.AC DEC 100 10HZ 100MEGHZ
.MC 10 AC V(5) YMAX LIST OUTPUT ALL
.TRAN 0.001ms 6ms
*
*--------- RESULTS -------------------------------
.PROBE
* out tnetwork_h100: V(13)
* out tnetwork_h20:  V(43)
.END

**** 05/15/18 22:47:02 ******* PSpice Lite (March 2016) ******* ID# 10813 ****

 *----------------------------


 ****     Diode MODEL PARAMETERS


******************************************************************************




               Xopamp1.DX      Xopamp2.DX      Xopamp3.DX      
          IS  800.000000E-18  800.000000E-18  800.000000E-18 


**** 05/15/18 22:47:02 ******* PSpice Lite (March 2016) ******* ID# 10813 ****

 *----------------------------


 ****     Junction FET MODEL PARAMETERS


******************************************************************************




               Xopamp1.JX      Xopamp2.JX      Xopamp3.JX      
               PJF             PJF             PJF             
         VTO   -1              -1              -1            
        BETA  270.100000E-06  270.100000E-06  270.100000E-06 
          IS   15.000000E-12   15.000000E-12   15.000000E-12 


**** 05/15/18 22:47:02 ******* PSpice Lite (March 2016) ******* ID# 10813 ****

 *----------------------------


 ****     Resistor MODEL PARAMETERS


******************************************************************************




               rmod            
           R    1.000000E+03 


**** 05/15/18 22:47:02 ******* PSpice Lite (March 2016) ******* ID# 10813 ****

 *----------------------------


 ****     Capacitor MODEL PARAMETERS


******************************************************************************




               cmod            
           C    1.000000E-09 


**** 05/15/18 22:47:02 ******* PSpice Lite (March 2016) ******* ID# 10813 ****

 *----------------------------


 ****     SMALL SIGNAL BIAS SOLUTION       TEMPERATURE =   27.000 DEG C

                      MONTE CARLO NOMINAL

******************************************************************************



 NODE   VOLTAGE     NODE   VOLTAGE     NODE   VOLTAGE     NODE   VOLTAGE


(    1)    0.0000  (    2) 11.53E-06  (    4) 30.75E-06  (    5) 15.48E-06      

(    6) 10.97E-06  (    7) 563.6E-09  (    8) 15.48E-06  (    9) 10.97E-06      

(   20)   15.0000  (   30)  -15.0000  (Xopamp1.6)-2.276E-09                     

(Xopamp1.7) 15.78E-06                 (Xopamp1.8) 15.78E-06                     

(Xopamp1.9)    0.0000                 (Xopamp2.6)-2.219E-09                     

(Xopamp2.7) 15.57E-06                 (Xopamp2.8) 15.57E-06                     

(Xopamp2.9)    0.0000                 (Xopamp3.6)-4.764E-09                     

(Xopamp3.7) 32.19E-06                 (Xopamp3.8) 32.19E-06                     

(Xopamp3.9)    0.0000                 (Xopamp1.10)    -.3986                    

(Xopamp1.11)  -14.6550                (Xopamp1.12)  -14.6550                    

(Xopamp1.53)   12.8000                (Xopamp1.54)  -12.8000                    

(Xopamp1.90) 2.016E-06                (Xopamp1.91)   25.0000                    

(Xopamp1.92)  -25.0000                (Xopamp1.99)    0.0000                    

(Xopamp2.10)    -.3986                (Xopamp2.11)  -14.6550                    

(Xopamp2.12)  -14.6550                (Xopamp2.53)   12.8000                    

(Xopamp2.54)  -12.8000                (Xopamp2.90) 653.7E-09                    

(Xopamp2.91)   25.0000                (Xopamp2.92)  -25.0000                    

(Xopamp2.99)    0.0000                (Xopamp3.10)    -.3986                    

(Xopamp3.11)  -14.6550                (Xopamp3.12)  -14.6550                    

(Xopamp3.53)   12.8000                (Xopamp3.54)  -12.8000                    

(Xopamp3.90) 9.608E-06                (Xopamp3.91)   25.0000                    

(Xopamp3.92)  -25.0000                (Xopamp3.99)    0.0000                




    VOLTAGE SOURCE CURRENTS
    NAME         CURRENT

    Vcc         -4.258E-02
    Vee          4.258E-02
    VAC          1.153E-08
    Xopamp1.VB  -2.277E-14
    Xopamp1.VC   1.280E-11
    Xopamp1.VE   1.280E-11
    Xopamp1.VLIM   2.016E-09
    Xopamp1.VLP  -2.500E-11
    Xopamp1.VLN  -2.500E-11
    Xopamp2.VB  -2.219E-14
    Xopamp2.VC   1.280E-11
    Xopamp2.VE   1.280E-11
    Xopamp2.VLIM   6.537E-10
    Xopamp2.VLP  -2.500E-11
    Xopamp2.VLN  -2.500E-11
    Xopamp3.VB  -4.764E-14
    Xopamp3.VC   1.280E-11
    Xopamp3.VE   1.280E-11
    Xopamp3.VLIM   9.608E-09
    Xopamp3.VLP  -2.500E-11
    Xopamp3.VLN  -2.500E-11

    TOTAL POWER DISSIPATION   1.28E+00  WATTS


**** 05/15/18 22:47:02 ******* PSpice Lite (March 2016) ******* ID# 10813 ****

 *----------------------------


 ****     INITIAL TRANSIENT SOLUTION       TEMPERATURE =   27.000 DEG C

                      MONTE CARLO NOMINAL

******************************************************************************



 NODE   VOLTAGE     NODE   VOLTAGE     NODE   VOLTAGE     NODE   VOLTAGE


(    1)    0.0000  (    2) 11.53E-06  (    4) 30.75E-06  (    5) 15.48E-06      

(    6) 10.97E-06  (    7) 563.6E-09  (    8) 15.48E-06  (    9) 10.97E-06      

(   20)   15.0000  (   30)  -15.0000  (Xopamp1.6)-2.279E-09                     

(Xopamp1.7) 15.78E-06                 (Xopamp1.8) 15.78E-06                     

(Xopamp1.9)    0.0000                 (Xopamp2.6)-2.219E-09                     

(Xopamp2.7) 15.57E-06                 (Xopamp2.8) 15.57E-06                     

(Xopamp2.9)    0.0000                 (Xopamp3.6)-4.747E-09                     

(Xopamp3.7) 32.19E-06                 (Xopamp3.8) 32.19E-06                     

(Xopamp3.9)    0.0000                 (Xopamp1.10)    -.3986                    

(Xopamp1.11)  -14.6550                (Xopamp1.12)  -14.6550                    

(Xopamp1.53)   12.8000                (Xopamp1.54)  -12.8000                    

(Xopamp1.90) 2.016E-06                (Xopamp1.91)   25.0000                    

(Xopamp1.92)  -25.0000                (Xopamp1.99)    0.0000                    

(Xopamp2.10)    -.3986                (Xopamp2.11)  -14.6550                    

(Xopamp2.12)  -14.6550                (Xopamp2.53)   12.8000                    

(Xopamp2.54)  -12.8000                (Xopamp2.90) 653.7E-09                    

(Xopamp2.91)   25.0000                (Xopamp2.92)  -25.0000                    

(Xopamp2.99)    0.0000                (Xopamp3.10)    -.3986                    

(Xopamp3.11)  -14.6550                (Xopamp3.12)  -14.6550                    

(Xopamp3.53)   12.8000                (Xopamp3.54)  -12.8000                    

(Xopamp3.90) 9.608E-06                (Xopamp3.91)   25.0000                    

(Xopamp3.92)  -25.0000                (Xopamp3.99)    0.0000                




    VOLTAGE SOURCE CURRENTS
    NAME         CURRENT

    Vcc         -4.258E-02
    Vee          4.258E-02
    VAC          1.153E-08
    Xopamp1.VB  -2.277E-14
    Xopamp1.VC   1.280E-11
    Xopamp1.VE   1.280E-11
    Xopamp1.VLIM   2.016E-09
    Xopamp1.VLP  -2.500E-11
    Xopamp1.VLN  -2.500E-11
    Xopamp2.VB  -2.219E-14
    Xopamp2.VC   1.280E-11
    Xopamp2.VE   1.280E-11
    Xopamp2.VLIM   6.537E-10
    Xopamp2.VLP  -2.500E-11
    Xopamp2.VLN  -2.500E-11
    Xopamp3.VB  -4.764E-14
    Xopamp3.VC   1.280E-11
    Xopamp3.VE   1.280E-11
    Xopamp3.VLIM   9.608E-09
    Xopamp3.VLP  -2.500E-11
    Xopamp3.VLN  -2.500E-11

    TOTAL POWER DISSIPATION   1.28E+00  WATTS


**** 05/15/18 22:47:02 ******* PSpice Lite (March 2016) ******* ID# 10813 ****

 *----------------------------


 ****     UPDATED MODEL PARAMETERS         TEMPERATURE =   27.000 DEG C

                      MONTE CARLO NOMINAL

******************************************************************************



     **** CURRENT MODEL PARAMETERS FOR DEVICES REFERENCING cmod
                                    c1           c2      
                  C             1.0000E-09   1.0000E-09  
                               
    
     **** CURRENT MODEL PARAMETERS FOR DEVICES REFERENCING rmod
                                    r1           r2      r3           
                  R             1.0000E+03   1.0000E+03   1.0000E+03  

    
                                    r4           r5      r6           
                  R             1.0000E+03   1.0000E+03   1.0000E+03  

    
                                    r7                                
                  R             1.0000E+03  

    

**** 05/15/18 22:47:02 ******* PSpice Lite (March 2016) ******* ID# 10813 ****

 *----------------------------


 ****     SMALL SIGNAL BIAS SOLUTION       TEMPERATURE =   27.000 DEG C

                      MONTE CARLO PASS 2

******************************************************************************



 NODE   VOLTAGE     NODE   VOLTAGE     NODE   VOLTAGE     NODE   VOLTAGE


(    1)    0.0000  (    2) 11.54E-06  (    4) 30.79E-06  (    5) 15.49E-06      

(    6) 10.97E-06  (    7) 569.1E-09  (    8) 15.51E-06  (    9) 10.97E-06      

(   20)   15.0000  (   30)  -15.0000  (Xopamp1.6)-2.279E-09                     

(Xopamp1.7) 15.79E-06                 (Xopamp1.8) 15.79E-06                     

(Xopamp1.9)    0.0000                 (Xopamp2.6)-2.224E-09                     

(Xopamp2.7) 15.61E-06                 (Xopamp2.8) 15.61E-06                     

(Xopamp2.9)    0.0000                 (Xopamp3.6)-4.773E-09                     

(Xopamp3.7) 32.24E-06                 (Xopamp3.8) 32.24E-06                     

(Xopamp3.9)    0.0000                 (Xopamp1.10)    -.3986                    

(Xopamp1.11)  -14.6550                (Xopamp1.12)  -14.6550                    

(Xopamp1.53)   12.8000                (Xopamp1.54)  -12.8000                    

(Xopamp1.90) 2.014E-06                (Xopamp1.91)   25.0000                    

(Xopamp1.92)  -25.0000                (Xopamp1.99)    0.0000                    

(Xopamp2.10)    -.3986                (Xopamp2.11)  -14.6550                    

(Xopamp2.12)  -14.6550                (Xopamp2.53)   12.8000                    

(Xopamp2.54)  -12.8000                (Xopamp2.90) 657.6E-09                    

(Xopamp2.91)   25.0000                (Xopamp2.92)  -25.0000                    

(Xopamp2.99)    0.0000                (Xopamp3.10)    -.3986                    

(Xopamp3.11)  -14.6550                (Xopamp3.12)  -14.6550                    

(Xopamp3.53)   12.8000                (Xopamp3.54)  -12.8000                    

(Xopamp3.90) 9.675E-06                (Xopamp3.91)   25.0000                    

(Xopamp3.92)  -25.0000                (Xopamp3.99)    0.0000                




    VOLTAGE SOURCE CURRENTS
    NAME         CURRENT

    Vcc         -4.258E-02
    Vee          4.258E-02
    VAC          1.160E-08
    Xopamp1.VB  -2.279E-14
    Xopamp1.VC   1.280E-11
    Xopamp1.VE   1.280E-11
    Xopamp1.VLIM   2.014E-09
    Xopamp1.VLP  -2.500E-11
    Xopamp1.VLN  -2.500E-11
    Xopamp2.VB  -2.224E-14
    Xopamp2.VC   1.280E-11
    Xopamp2.VE   1.280E-11
    Xopamp2.VLIM   6.576E-10
    Xopamp2.VLP  -2.500E-11
    Xopamp2.VLN  -2.500E-11
    Xopamp3.VB  -4.773E-14
    Xopamp3.VC   1.280E-11
    Xopamp3.VE   1.280E-11
    Xopamp3.VLIM   9.675E-09
    Xopamp3.VLP  -2.500E-11
    Xopamp3.VLN  -2.500E-11

    TOTAL POWER DISSIPATION   1.28E+00  WATTS


**** 05/15/18 22:47:02 ******* PSpice Lite (March 2016) ******* ID# 10813 ****

 *----------------------------


 ****     UPDATED MODEL PARAMETERS         TEMPERATURE =   27.000 DEG C

                      MONTE CARLO PASS 2

******************************************************************************



     **** CURRENT MODEL PARAMETERS FOR DEVICES REFERENCING cmod
                                    c1           c2      
                  C             9.9885E-10   9.9952E-10  
                               
    
     **** CURRENT MODEL PARAMETERS FOR DEVICES REFERENCING rmod
                                    r1           r2      r3           
                  R             1.0027E+03   1.0077E+03   9.9493E+02  

    
                                    r4           r5      r6           
                  R             1.0028E+03   9.9494E+02   1.0028E+03  

    
                                    r7                                
                  R             9.9556E+02  

    

**** 05/15/18 22:47:02 ******* PSpice Lite (March 2016) ******* ID# 10813 ****

 *----------------------------


 ****     SMALL SIGNAL BIAS SOLUTION       TEMPERATURE =   27.000 DEG C

                      MONTE CARLO PASS 3

******************************************************************************



 NODE   VOLTAGE     NODE   VOLTAGE     NODE   VOLTAGE     NODE   VOLTAGE


(    1)    0.0000  (    2) 11.53E-06  (    4) 30.87E-06  (    5) 15.51E-06      

(    6) 10.97E-06  (    7) 561.9E-09  (    8) 15.49E-06  (    9) 10.97E-06      

(   20)   15.0000  (   30)  -15.0000  (Xopamp1.6)-2.284E-09                     

(Xopamp1.7) 15.82E-06                 (Xopamp1.8) 15.82E-06                     

(Xopamp1.9)    0.0000                 (Xopamp2.6)-2.210E-09                     

(Xopamp2.7) 15.59E-06                 (Xopamp2.8) 15.59E-06                     

(Xopamp2.9)    0.0000                 (Xopamp3.6)-4.781E-09                     

(Xopamp3.7) 32.31E-06                 (Xopamp3.8) 32.31E-06                     

(Xopamp3.9)    0.0000                 (Xopamp1.10)    -.3986                    

(Xopamp1.11)  -14.6550                (Xopamp1.12)  -14.6550                    

(Xopamp1.53)   12.8000                (Xopamp1.54)  -12.8000                    

(Xopamp1.90) 2.048E-06                (Xopamp1.91)   25.0000                    

(Xopamp1.92)  -25.0000                (Xopamp1.99)    0.0000                    

(Xopamp2.10)    -.3986                (Xopamp2.11)  -14.6550                    

(Xopamp2.12)  -14.6550                (Xopamp2.53)   12.8000                    

(Xopamp2.54)  -12.8000                (Xopamp2.90) 653.8E-09                    

(Xopamp2.91)   25.0000                (Xopamp2.92)  -25.0000                    

(Xopamp2.99)    0.0000                (Xopamp3.10)    -.3986                    

(Xopamp3.11)  -14.6550                (Xopamp3.12)  -14.6550                    

(Xopamp3.53)   12.8000                (Xopamp3.54)  -12.8000                    

(Xopamp3.90) 9.614E-06                (Xopamp3.91)   25.0000                    

(Xopamp3.92)  -25.0000                (Xopamp3.99)    0.0000                




    VOLTAGE SOURCE CURRENTS
    NAME         CURRENT

    Vcc         -4.258E-02
    Vee          4.258E-02
    VAC          1.157E-08
    Xopamp1.VB  -2.284E-14
    Xopamp1.VC   1.280E-11
    Xopamp1.VE   1.280E-11
    Xopamp1.VLIM   2.048E-09
    Xopamp1.VLP  -2.500E-11
    Xopamp1.VLN  -2.500E-11
    Xopamp2.VB  -2.221E-14
    Xopamp2.VC   1.280E-11
    Xopamp2.VE   1.280E-11
    Xopamp2.VLIM   6.538E-10
    Xopamp2.VLP  -2.500E-11
    Xopamp2.VLN  -2.500E-11
    Xopamp3.VB  -4.781E-14
    Xopamp3.VC   1.280E-11
    Xopamp3.VE   1.280E-11
    Xopamp3.VLIM   9.614E-09
    Xopamp3.VLP  -2.500E-11
    Xopamp3.VLN  -2.500E-11

    TOTAL POWER DISSIPATION   1.28E+00  WATTS


**** 05/15/18 22:47:02 ******* PSpice Lite (March 2016) ******* ID# 10813 ****

 *----------------------------


 ****     UPDATED MODEL PARAMETERS         TEMPERATURE =   27.000 DEG C

                      MONTE CARLO PASS 3

******************************************************************************



     **** CURRENT MODEL PARAMETERS FOR DEVICES REFERENCING cmod
                                    c1           c2      
                  C             1.0029E-09   9.9256E-10  
                               
    
     **** CURRENT MODEL PARAMETERS FOR DEVICES REFERENCING rmod
                                    r1           r2      r3           
                  R             1.0080E+03   1.0034E+03   9.9662E+02  

    
                                    r4           r5      r6           
                  R             9.9677E+02   1.0057E+03   9.9340E+02  

    
                                    r7                                
                  R             1.0009E+03  

    

**** 05/15/18 22:47:02 ******* PSpice Lite (March 2016) ******* ID# 10813 ****

 *----------------------------


 ****     SMALL SIGNAL BIAS SOLUTION       TEMPERATURE =   27.000 DEG C

                      MONTE CARLO PASS 4

******************************************************************************



 NODE   VOLTAGE     NODE   VOLTAGE     NODE   VOLTAGE     NODE   VOLTAGE


(    1)    0.0000  (    2) 11.54E-06  (    4) 30.66E-06  (    5) 15.50E-06      

(    6) 10.97E-06  (    7) 568.1E-09  (    8) 15.47E-06  (    9) 10.97E-06      

(   20)   15.0000  (   30)  -15.0000  (Xopamp1.6)-2.280E-09                     

(Xopamp1.7) 15.80E-06                 (Xopamp1.8) 15.80E-06                     

(Xopamp1.9)    0.0000                 (Xopamp2.6)-2.219E-09                     

(Xopamp2.7) 15.57E-06                 (Xopamp2.8) 15.57E-06                     

(Xopamp2.9)    0.0000                 (Xopamp3.6)-4.747E-09                     

(Xopamp3.7) 32.09E-06                 (Xopamp3.8) 32.09E-06                     

(Xopamp3.9)    0.0000                 (Xopamp1.10)    -.3986                    

(Xopamp1.11)  -14.6550                (Xopamp1.12)  -14.6550                    

(Xopamp1.53)   12.8000                (Xopamp1.54)  -12.8000                    

(Xopamp1.90) 2.015E-06                (Xopamp1.91)   25.0000                    

(Xopamp1.92)  -25.0000                (Xopamp1.99)    0.0000                    

(Xopamp2.10)    -.3986                (Xopamp2.11)  -14.6550                    

(Xopamp2.12)  -14.6550                (Xopamp2.53)   12.8000                    

(Xopamp2.54)  -12.8000                (Xopamp2.90) 656.9E-09                    

(Xopamp2.91)   25.0000                (Xopamp2.92)  -25.0000                    

(Xopamp2.99)    0.0000                (Xopamp3.10)    -.3986                    

(Xopamp3.11)  -14.6550                (Xopamp3.12)  -14.6550                    

(Xopamp3.53)   12.8000                (Xopamp3.54)  -12.8000                    

(Xopamp3.90) 9.561E-06                (Xopamp3.91)   25.0000                    

(Xopamp3.92)  -25.0000                (Xopamp3.99)    0.0000                




    VOLTAGE SOURCE CURRENTS
    NAME         CURRENT

    Vcc         -4.258E-02
    Vee          4.258E-02
    VAC          1.149E-08
    Xopamp1.VB  -2.280E-14
    Xopamp1.VC   1.280E-11
    Xopamp1.VE   1.280E-11
    Xopamp1.VLIM   2.015E-09
    Xopamp1.VLP  -2.500E-11
    Xopamp1.VLN  -2.500E-11
    Xopamp2.VB  -2.219E-14
    Xopamp2.VC   1.280E-11
    Xopamp2.VE   1.280E-11
    Xopamp2.VLIM   6.569E-10
    Xopamp2.VLP  -2.500E-11
    Xopamp2.VLN  -2.500E-11
    Xopamp3.VB  -4.749E-14
    Xopamp3.VC   1.280E-11
    Xopamp3.VE   1.280E-11
    Xopamp3.VLIM   9.561E-09
    Xopamp3.VLP  -2.500E-11
    Xopamp3.VLN  -2.500E-11

    TOTAL POWER DISSIPATION   1.28E+00  WATTS


**** 05/15/18 22:47:02 ******* PSpice Lite (March 2016) ******* ID# 10813 ****

 *----------------------------


 ****     UPDATED MODEL PARAMETERS         TEMPERATURE =   27.000 DEG C

                      MONTE CARLO PASS 4

******************************************************************************



     **** CURRENT MODEL PARAMETERS FOR DEVICES REFERENCING cmod
                                    c1           c2      
                  C             9.9422E-10   9.9149E-10  
                               
    
     **** CURRENT MODEL PARAMETERS FOR DEVICES REFERENCING rmod
                                    r1           r2      r3           
                  R             1.0048E+03   9.9894E+02   1.0045E+03  

    
                                    r4           r5      r6           
                  R             1.0024E+03   9.9975E+02   1.0047E+03  

    
                                    r7                                
                  R             9.9423E+02  

    

**** 05/15/18 22:47:02 ******* PSpice Lite (March 2016) ******* ID# 10813 ****

 *----------------------------


 ****     SMALL SIGNAL BIAS SOLUTION       TEMPERATURE =   27.000 DEG C

                      MONTE CARLO PASS 5

******************************************************************************



 NODE   VOLTAGE     NODE   VOLTAGE     NODE   VOLTAGE     NODE   VOLTAGE


(    1)    0.0000  (    2) 11.54E-06  (    4) 30.87E-06  (    5) 15.44E-06      

(    6) 10.97E-06  (    7) 570.1E-09  (    8) 15.47E-06  (    9) 10.97E-06      

(   20)   15.0000  (   30)  -15.0000  (Xopamp1.6)-2.271E-09                     

(Xopamp1.7) 15.74E-06                 (Xopamp1.8) 15.74E-06                     

(Xopamp1.9)    0.0000                 (Xopamp2.6)-2.219E-09                     

(Xopamp2.7) 15.57E-06                 (Xopamp2.8) 15.57E-06                     

(Xopamp2.9)    0.0000                 (Xopamp3.6)-4.773E-09                     

(Xopamp3.7) 32.32E-06                 (Xopamp3.8) 32.32E-06                     

(Xopamp3.9)    0.0000                 (Xopamp1.10)    -.3986                    

(Xopamp1.11)  -14.6550                (Xopamp1.12)  -14.6550                    

(Xopamp1.53)   12.8000                (Xopamp1.54)  -12.8000                    

(Xopamp1.90) 1.985E-06                (Xopamp1.91)   25.0000                    

(Xopamp1.92)  -25.0000                (Xopamp1.99)    0.0000                    

(Xopamp2.10)    -.3986                (Xopamp2.11)  -14.6550                    

(Xopamp2.12)  -14.6550                (Xopamp2.53)   12.8000                    

(Xopamp2.54)  -12.8000                (Xopamp2.90) 656.6E-09                    

(Xopamp2.91)   25.0000                (Xopamp2.92)  -25.0000                    

(Xopamp2.99)    0.0000                (Xopamp3.10)    -.3986                    

(Xopamp3.11)  -14.6550                (Xopamp3.12)  -14.6550                    

(Xopamp3.53)   12.8000                (Xopamp3.54)  -12.8000                    

(Xopamp3.90) 9.661E-06                (Xopamp3.91)   25.0000                    

(Xopamp3.92)  -25.0000                (Xopamp3.99)    0.0000                




    VOLTAGE SOURCE CURRENTS
    NAME         CURRENT

    Vcc         -4.258E-02
    Vee          4.258E-02
    VAC          1.156E-08
    Xopamp1.VB  -2.271E-14
    Xopamp1.VC   1.280E-11
    Xopamp1.VE   1.280E-11
    Xopamp1.VLIM   1.985E-09
    Xopamp1.VLP  -2.500E-11
    Xopamp1.VLN  -2.500E-11
    Xopamp2.VB  -2.219E-14
    Xopamp2.VC   1.280E-11
    Xopamp2.VE   1.280E-11
    Xopamp2.VLIM   6.566E-10
    Xopamp2.VLP  -2.500E-11
    Xopamp2.VLN  -2.500E-11
    Xopamp3.VB  -4.783E-14
    Xopamp3.VC   1.280E-11
    Xopamp3.VE   1.280E-11
    Xopamp3.VLIM   9.661E-09
    Xopamp3.VLP  -2.500E-11
    Xopamp3.VLN  -2.500E-11

    TOTAL POWER DISSIPATION   1.28E+00  WATTS


**** 05/15/18 22:47:02 ******* PSpice Lite (March 2016) ******* ID# 10813 ****

 *----------------------------


 ****     UPDATED MODEL PARAMETERS         TEMPERATURE =   27.000 DEG C

                      MONTE CARLO PASS 5

******************************************************************************



     **** CURRENT MODEL PARAMETERS FOR DEVICES REFERENCING cmod
                                    c1           c2      
                  C             1.0034E-09   1.0068E-09  
                               
    
     **** CURRENT MODEL PARAMETERS FOR DEVICES REFERENCING rmod
                                    r1           r2      r3           
                  R             9.9178E+02   9.9871E+02   9.9866E+02  

    
                                    r4           r5      r6           
                  R             1.0064E+03   1.0005E+03   1.0046E+03  

    
                                    r7                                
                  R             9.9451E+02  

    

**** 05/15/18 22:47:02 ******* PSpice Lite (March 2016) ******* ID# 10813 ****

 *----------------------------


 ****     SMALL SIGNAL BIAS SOLUTION       TEMPERATURE =   27.000 DEG C

                      MONTE CARLO PASS 6

******************************************************************************



 NODE   VOLTAGE     NODE   VOLTAGE     NODE   VOLTAGE     NODE   VOLTAGE


(    1)    0.0000  (    2) 11.53E-06  (    4) 30.40E-06  (    5) 15.49E-06      

(    6) 10.97E-06  (    7) 563.8E-09  (    8) 15.48E-06  (    9) 10.97E-06      

(   20)   15.0000  (   30)  -15.0000  (Xopamp1.6)-2.280E-09                     

(Xopamp1.7) 15.79E-06                 (Xopamp1.8) 15.79E-06                     

(Xopamp1.9)    0.0000                 (Xopamp2.6)-2.220E-09                     

(Xopamp2.7) 15.58E-06                 (Xopamp2.8) 15.58E-06                     

(Xopamp2.9)    0.0000                 (Xopamp3.6)-4.708E-09                     

(Xopamp3.7) 31.83E-06                 (Xopamp3.8) 31.83E-06                     

(Xopamp3.9)    0.0000                 (Xopamp1.10)    -.3986                    

(Xopamp1.11)  -14.6550                (Xopamp1.12)  -14.6550                    

(Xopamp1.53)   12.8000                (Xopamp1.54)  -12.8000                    

(Xopamp1.90) 2.013E-06                (Xopamp1.91)   25.0000                    

(Xopamp1.92)  -25.0000                (Xopamp1.99)    0.0000                    

(Xopamp2.10)    -.3986                (Xopamp2.11)  -14.6550                    

(Xopamp2.12)  -14.6550                (Xopamp2.53)   12.8000                    

(Xopamp2.54)  -12.8000                (Xopamp2.90) 658.8E-09                    

(Xopamp2.91)   25.0000                (Xopamp2.92)  -25.0000                    

(Xopamp2.99)    0.0000                (Xopamp3.10)    -.3986                    

(Xopamp3.11)  -14.6550                (Xopamp3.12)  -14.6550                    

(Xopamp3.53)   12.8000                (Xopamp3.54)  -12.8000                    

(Xopamp3.90) 9.503E-06                (Xopamp3.91)   25.0000                    

(Xopamp3.92)  -25.0000                (Xopamp3.99)    0.0000                




    VOLTAGE SOURCE CURRENTS
    NAME         CURRENT

    Vcc         -4.258E-02
    Vee          4.258E-02
    VAC          1.143E-08
    Xopamp1.VB  -2.280E-14
    Xopamp1.VC   1.280E-11
    Xopamp1.VE   1.280E-11
    Xopamp1.VLIM   2.013E-09
    Xopamp1.VLP  -2.500E-11
    Xopamp1.VLN  -2.500E-11
    Xopamp2.VB  -2.220E-14
    Xopamp2.VC   1.280E-11
    Xopamp2.VE   1.280E-11
    Xopamp2.VLIM   6.588E-10
    Xopamp2.VLP  -2.500E-11
    Xopamp2.VLN  -2.500E-11
    Xopamp3.VB  -4.710E-14
    Xopamp3.VC   1.280E-11
    Xopamp3.VE   1.280E-11
    Xopamp3.VLIM   9.503E-09
    Xopamp3.VLP  -2.500E-11
    Xopamp3.VLN  -2.500E-11

    TOTAL POWER DISSIPATION   1.28E+00  WATTS


**** 05/15/18 22:47:02 ******* PSpice Lite (March 2016) ******* ID# 10813 ****

 *----------------------------


 ****     UPDATED MODEL PARAMETERS         TEMPERATURE =   27.000 DEG C

                      MONTE CARLO PASS 6

******************************************************************************



     **** CURRENT MODEL PARAMETERS FOR DEVICES REFERENCING cmod
                                    c1           c2      
                  C             9.9843E-10   1.0099E-09  
                               
    
     **** CURRENT MODEL PARAMETERS FOR DEVICES REFERENCING rmod
                                    r1           r2      r3           
                  R             1.0037E+03   1.0002E+03   1.0095E+03  

    
                                    r4           r5      r6           
                  R             9.9134E+02   9.9266E+02   1.0057E+03  

    
                                    r7                                
                  R             9.9174E+02  

    

**** 05/15/18 22:47:02 ******* PSpice Lite (March 2016) ******* ID# 10813 ****

 *----------------------------


 ****     SMALL SIGNAL BIAS SOLUTION       TEMPERATURE =   27.000 DEG C

                      MONTE CARLO PASS 7

******************************************************************************



 NODE   VOLTAGE     NODE   VOLTAGE     NODE   VOLTAGE     NODE   VOLTAGE


(    1)    0.0000  (    2) 11.54E-06  (    4) 30.53E-06  (    5) 15.49E-06      

(    6) 10.97E-06  (    7) 571.9E-09  (    8) 15.50E-06  (    9) 10.97E-06      

(   20)   15.0000  (   30)  -15.0000  (Xopamp1.6)-2.280E-09                     

(Xopamp1.7) 15.80E-06                 (Xopamp1.8) 15.80E-06                     

(Xopamp1.9)    0.0000                 (Xopamp2.6)-2.222E-09                     

(Xopamp2.7) 15.60E-06                 (Xopamp2.8) 15.60E-06                     

(Xopamp2.9)    0.0000                 (Xopamp3.6)-4.762E-09                     

(Xopamp3.7) 31.96E-06                 (Xopamp3.8) 31.96E-06                     

(Xopamp3.9)    0.0000                 (Xopamp1.10)    -.3986                    

(Xopamp1.11)  -14.6550                (Xopamp1.12)  -14.6550                    

(Xopamp1.53)   12.8000                (Xopamp1.54)  -12.8000                    

(Xopamp1.90) 2.033E-06                (Xopamp1.91)   25.0000                    

(Xopamp1.92)  -25.0000                (Xopamp1.99)    0.0000                    

(Xopamp2.10)    -.3986                (Xopamp2.11)  -14.6550                    

(Xopamp2.12)  -14.6550                (Xopamp2.53)   12.8000                    

(Xopamp2.54)  -12.8000                (Xopamp2.90) 659.3E-09                    

(Xopamp2.91)   25.0000                (Xopamp2.92)  -25.0000                    

(Xopamp2.99)    0.0000                (Xopamp3.10)    -.3986                    

(Xopamp3.11)  -14.6550                (Xopamp3.12)  -14.6550                    

(Xopamp3.53)   12.8000                (Xopamp3.54)  -12.8000                    

(Xopamp3.90) 9.581E-06                (Xopamp3.91)   25.0000                    

(Xopamp3.92)  -25.0000                (Xopamp3.99)    0.0000                




    VOLTAGE SOURCE CURRENTS
    NAME         CURRENT

    Vcc         -4.258E-02
    Vee          4.258E-02
    VAC          1.152E-08
    Xopamp1.VB  -2.280E-14
    Xopamp1.VC   1.280E-11
    Xopamp1.VE   1.280E-11
    Xopamp1.VLIM   2.033E-09
    Xopamp1.VLP  -2.500E-11
    Xopamp1.VLN  -2.500E-11
    Xopamp2.VB  -2.222E-14
    Xopamp2.VC   1.280E-11
    Xopamp2.VE   1.280E-11
    Xopamp2.VLIM   6.593E-10
    Xopamp2.VLP  -2.500E-11
    Xopamp2.VLN  -2.500E-11
    Xopamp3.VB  -4.731E-14
    Xopamp3.VC   1.280E-11
    Xopamp3.VE   1.280E-11
    Xopamp3.VLIM   9.581E-09
    Xopamp3.VLP  -2.500E-11
    Xopamp3.VLN  -2.500E-11

    TOTAL POWER DISSIPATION   1.28E+00  WATTS


**** 05/15/18 22:47:02 ******* PSpice Lite (March 2016) ******* ID# 10813 ****

 *----------------------------


 ****     UPDATED MODEL PARAMETERS         TEMPERATURE =   27.000 DEG C

                      MONTE CARLO PASS 7

******************************************************************************



     **** CURRENT MODEL PARAMETERS FOR DEVICES REFERENCING cmod
                                    c1           c2      
                  C             9.9833E-10   1.0005E-09  
                               
    
     **** CURRENT MODEL PARAMETERS FOR DEVICES REFERENCING rmod
                                    r1           r2      r3           
                  R             1.0037E+03   1.0046E+03   1.0016E+03  

    
                                    r4           r5      r6           
                  R             1.0048E+03   9.9065E+02   9.9344E+02  

    
                                    r7                                
                  R             9.9174E+02  

    

**** 05/15/18 22:47:02 ******* PSpice Lite (March 2016) ******* ID# 10813 ****

 *----------------------------


 ****     SMALL SIGNAL BIAS SOLUTION       TEMPERATURE =   27.000 DEG C

                      MONTE CARLO PASS 8

******************************************************************************



 NODE   VOLTAGE     NODE   VOLTAGE     NODE   VOLTAGE     NODE   VOLTAGE


(    1)    0.0000  (    2) 11.53E-06  (    4) 30.73E-06  (    5) 15.51E-06      

(    6) 10.97E-06  (    7) 556.7E-09  (    8) 15.49E-06  (    9) 10.97E-06      

(   20)   15.0000  (   30)  -15.0000  (Xopamp1.6)-2.282E-09                     

(Xopamp1.7) 15.81E-06                 (Xopamp1.8) 15.81E-06                     

(Xopamp1.9)    0.0000                 (Xopamp2.6)-2.221E-09                     

(Xopamp2.7) 15.59E-06                 (Xopamp2.8) 15.59E-06                     

(Xopamp2.9)    0.0000                 (Xopamp3.6)-4.734E-09                     

(Xopamp3.7) 32.18E-06                 (Xopamp3.8) 32.18E-06                     

(Xopamp3.9)    0.0000                 (Xopamp1.10)    -.3986                    

(Xopamp1.11)  -14.6550                (Xopamp1.12)  -14.6550                    

(Xopamp1.53)   12.8000                (Xopamp1.54)  -12.8000                    

(Xopamp1.90) 2.020E-06                (Xopamp1.91)   25.0000                    

(Xopamp1.92)  -25.0000                (Xopamp1.99)    0.0000                    

(Xopamp2.10)    -.3986                (Xopamp2.11)  -14.6550                    

(Xopamp2.12)  -14.6550                (Xopamp2.53)   12.8000                    

(Xopamp2.54)  -12.8000                (Xopamp2.90) 650.5E-09                    

(Xopamp2.91)   25.0000                (Xopamp2.92)  -25.0000                    

(Xopamp2.99)    0.0000                (Xopamp3.10)    -.3986                    

(Xopamp3.11)  -14.6550                (Xopamp3.12)  -14.6550                    

(Xopamp3.53)   12.8000                (Xopamp3.54)  -12.8000                    

(Xopamp3.90) 9.635E-06                (Xopamp3.91)   25.0000                    

(Xopamp3.92)  -25.0000                (Xopamp3.99)    0.0000                




    VOLTAGE SOURCE CURRENTS
    NAME         CURRENT

    Vcc         -4.258E-02
    Vee          4.258E-02
    VAC          1.157E-08
    Xopamp1.VB  -2.282E-14
    Xopamp1.VC   1.280E-11
    Xopamp1.VE   1.280E-11
    Xopamp1.VLIM   2.020E-09
    Xopamp1.VLP  -2.500E-11
    Xopamp1.VLN  -2.500E-11
    Xopamp2.VB  -2.221E-14
    Xopamp2.VC   1.280E-11
    Xopamp2.VE   1.280E-11
    Xopamp2.VLIM   6.505E-10
    Xopamp2.VLP  -2.500E-11
    Xopamp2.VLN  -2.500E-11
    Xopamp3.VB  -4.763E-14
    Xopamp3.VC   1.280E-11
    Xopamp3.VE   1.280E-11
    Xopamp3.VLIM   9.635E-09
    Xopamp3.VLP  -2.500E-11
    Xopamp3.VLN  -2.500E-11

    TOTAL POWER DISSIPATION   1.28E+00  WATTS


**** 05/15/18 22:47:02 ******* PSpice Lite (March 2016) ******* ID# 10813 ****

 *----------------------------


 ****     UPDATED MODEL PARAMETERS         TEMPERATURE =   27.000 DEG C

                      MONTE CARLO PASS 8

******************************************************************************



     **** CURRENT MODEL PARAMETERS FOR DEVICES REFERENCING cmod
                                    c1           c2      
                  C             1.0025E-09   9.9580E-10  
                               
    
     **** CURRENT MODEL PARAMETERS FOR DEVICES REFERENCING rmod
                                    r1           r2      r3           
                  R             1.0069E+03   1.0030E+03   9.9674E+02  

    
                                    r4           r5      r6           
                  R             9.9334E+02   9.9658E+02   1.0076E+03  

    
                                    r7                                
                  R             1.0066E+03  

    

**** 05/15/18 22:47:02 ******* PSpice Lite (March 2016) ******* ID# 10813 ****

 *----------------------------


 ****     SMALL SIGNAL BIAS SOLUTION       TEMPERATURE =   27.000 DEG C

                      MONTE CARLO PASS 9

******************************************************************************



 NODE   VOLTAGE     NODE   VOLTAGE     NODE   VOLTAGE     NODE   VOLTAGE


(    1)    0.0000  (    2) 11.54E-06  (    4) 30.76E-06  (    5) 15.47E-06      

(    6) 10.97E-06  (    7) 566.4E-09  (    8) 15.46E-06  (    9) 10.97E-06      

(   20)   15.0000  (   30)  -15.0000  (Xopamp1.6)-2.277E-09                     

(Xopamp1.7) 15.77E-06                 (Xopamp1.8) 15.77E-06                     

(Xopamp1.9)    0.0000                 (Xopamp2.6)-2.218E-09                     

(Xopamp2.7) 15.56E-06                 (Xopamp2.8) 15.56E-06                     

(Xopamp2.9)    0.0000                 (Xopamp3.6)-4.759E-09                     

(Xopamp3.7) 32.19E-06                 (Xopamp3.8) 32.19E-06                     

(Xopamp3.9)    0.0000                 (Xopamp1.10)    -.3986                    

(Xopamp1.11)  -14.6550                (Xopamp1.12)  -14.6550                    

(Xopamp1.53)   12.8000                (Xopamp1.54)  -12.8000                    

(Xopamp1.90) 2.018E-06                (Xopamp1.91)   25.0000                    

(Xopamp1.92)  -25.0000                (Xopamp1.99)    0.0000                    

(Xopamp2.10)    -.3986                (Xopamp2.11)  -14.6550                    

(Xopamp2.12)  -14.6550                (Xopamp2.53)   12.8000                    

(Xopamp2.54)  -12.8000                (Xopamp2.90) 654.9E-09                    

(Xopamp2.91)   25.0000                (Xopamp2.92)  -25.0000                    

(Xopamp2.99)    0.0000                (Xopamp3.10)    -.3986                    

(Xopamp3.11)  -14.6550                (Xopamp3.12)  -14.6550                    

(Xopamp3.53)   12.8000                (Xopamp3.54)  -12.8000                    

(Xopamp3.90) 9.541E-06                (Xopamp3.91)   25.0000                    

(Xopamp3.92)  -25.0000                (Xopamp3.99)    0.0000                




    VOLTAGE SOURCE CURRENTS
    NAME         CURRENT

    Vcc         -4.258E-02
    Vee          4.258E-02
    VAC          1.147E-08
    Xopamp1.VB  -2.276E-14
    Xopamp1.VC   1.280E-11
    Xopamp1.VE   1.280E-11
    Xopamp1.VLIM   2.018E-09
    Xopamp1.VLP  -2.500E-11
    Xopamp1.VLN  -2.500E-11
    Xopamp2.VB  -2.218E-14
    Xopamp2.VC   1.280E-11
    Xopamp2.VE   1.280E-11
    Xopamp2.VLIM   6.549E-10
    Xopamp2.VLP  -2.500E-11
    Xopamp2.VLN  -2.500E-11
    Xopamp3.VB  -4.763E-14
    Xopamp3.VC   1.280E-11
    Xopamp3.VE   1.280E-11
    Xopamp3.VLIM   9.541E-09
    Xopamp3.VLP  -2.500E-11
    Xopamp3.VLN  -2.500E-11

    TOTAL POWER DISSIPATION   1.28E+00  WATTS


**** 05/15/18 22:47:02 ******* PSpice Lite (March 2016) ******* ID# 10813 ****

 *----------------------------


 ****     UPDATED MODEL PARAMETERS         TEMPERATURE =   27.000 DEG C

                      MONTE CARLO PASS 9

******************************************************************************



     **** CURRENT MODEL PARAMETERS FOR DEVICES REFERENCING cmod
                                    c1           c2      
                  C             1.0023E-09   9.9690E-10  
                               
    
     **** CURRENT MODEL PARAMETERS FOR DEVICES REFERENCING rmod
                                    r1           r2      r3           
                  R             9.9840E+02   9.9722E+02   1.0059E+03  

    
                                    r4           r5      r6           
                  R             1.0029E+03   1.0075E+03   9.9646E+02  

    
                                    r7                                
                  R             9.9705E+02  

    

**** 05/15/18 22:47:02 ******* PSpice Lite (March 2016) ******* ID# 10813 ****

 *----------------------------


 ****     SMALL SIGNAL BIAS SOLUTION       TEMPERATURE =   27.000 DEG C

                      MONTE CARLO PASS 10

******************************************************************************



 NODE   VOLTAGE     NODE   VOLTAGE     NODE   VOLTAGE     NODE   VOLTAGE


(    1)    0.0000  (    2) 11.54E-06  (    4) 31.02E-06  (    5) 15.49E-06      

(    6) 10.97E-06  (    7) 572.6E-09  (    8) 15.50E-06  (    9) 10.97E-06      

(   20)   15.0000  (   30)  -15.0000  (Xopamp1.6)-2.278E-09                     

(Xopamp1.7) 15.79E-06                 (Xopamp1.8) 15.79E-06                     

(Xopamp1.9)    0.0000                 (Xopamp2.6)-2.223E-09                     

(Xopamp2.7) 15.60E-06                 (Xopamp2.8) 15.60E-06                     

(Xopamp2.9)    0.0000                 (Xopamp3.6)-4.819E-09                     

(Xopamp3.7) 32.47E-06                 (Xopamp3.8) 32.47E-06                     

(Xopamp3.9)    0.0000                 (Xopamp1.10)    -.3986                    

(Xopamp1.11)  -14.6550                (Xopamp1.12)  -14.6550                    

(Xopamp1.53)   12.8000                (Xopamp1.54)  -12.8000                    

(Xopamp1.90) 2.010E-06                (Xopamp1.91)   25.0000                    

(Xopamp1.92)  -25.0000                (Xopamp1.99)    0.0000                    

(Xopamp2.10)    -.3986                (Xopamp2.11)  -14.6550                    

(Xopamp2.12)  -14.6550                (Xopamp2.53)   12.8000                    

(Xopamp2.54)  -12.8000                (Xopamp2.90) 657.9E-09                    

(Xopamp2.91)   25.0000                (Xopamp2.92)  -25.0000                    

(Xopamp2.99)    0.0000                (Xopamp3.10)    -.3986                    

(Xopamp3.11)  -14.6550                (Xopamp3.12)  -14.6550                    

(Xopamp3.53)   12.8000                (Xopamp3.54)  -12.8000                    

(Xopamp3.90) 9.666E-06                (Xopamp3.91)   25.0000                    

(Xopamp3.92)  -25.0000                (Xopamp3.99)    0.0000                




    VOLTAGE SOURCE CURRENTS
    NAME         CURRENT

    Vcc         -4.258E-02
    Vee          4.258E-02
    VAC          1.159E-08
    Xopamp1.VB  -2.279E-14
    Xopamp1.VC   1.280E-11
    Xopamp1.VE   1.280E-11
    Xopamp1.VLIM   2.010E-09
    Xopamp1.VLP  -2.500E-11
    Xopamp1.VLN  -2.500E-11
    Xopamp2.VB  -2.223E-14
    Xopamp2.VC   1.280E-11
    Xopamp2.VE   1.280E-11
    Xopamp2.VLIM   6.579E-10
    Xopamp2.VLP  -2.500E-11
    Xopamp2.VLN  -2.500E-11
    Xopamp3.VB  -4.805E-14
    Xopamp3.VC   1.280E-11
    Xopamp3.VE   1.280E-11
    Xopamp3.VLIM   9.666E-09
    Xopamp3.VLP  -2.500E-11
    Xopamp3.VLN  -2.500E-11

    TOTAL POWER DISSIPATION   1.28E+00  WATTS


**** 05/15/18 22:47:02 ******* PSpice Lite (March 2016) ******* ID# 10813 ****

 *----------------------------


 ****     UPDATED MODEL PARAMETERS         TEMPERATURE =   27.000 DEG C

                      MONTE CARLO PASS 10

******************************************************************************



     **** CURRENT MODEL PARAMETERS FOR DEVICES REFERENCING cmod
                                    c1           c2      
                  C             1.0011E-09   1.0048E-09  
                               
    
     **** CURRENT MODEL PARAMETERS FOR DEVICES REFERENCING rmod
                                    r1           r2      r3           
                  R             1.0030E+03   1.0062E+03   9.9636E+02  

    
                                    r4           r5      r6           
                  R             1.0086E+03   1.0074E+03   1.0044E+03  

    
                                    r7                                
                  R             9.9447E+02  

    

**** 05/15/18 22:47:02 ******* PSpice Lite (March 2016) ******* ID# 10813 ****

 *----------------------------


 ****     SORTED DEVIATIONS OF V(5)        TEMPERATURE =   27.000 DEG C

                      MONTE CARLO SUMMARY

******************************************************************************





Mean Deviation =    -.0459
Sigma          =     .1803

 RUN                    MAX DEVIATION FROM NOMINAL

Pass    3                .309   (1.71 sigma)  higher  at F =  933.25
                        ( 104.7 % of Nominal)

Pass    4                .2383  (1.32 sigma)  lower  at F =  933.25
                        (  96.372% of Nominal)

Pass   10                .2301  (1.28 sigma)  lower  at F =    1.0715E+03
                        (  96.959% of Nominal)

Pass    8                .218   (1.21 sigma)  higher  at F =    1.0233E+03
                        ( 102.68% of Nominal)

Pass    7                .1564  ( .87 sigma)  lower  at F =    1.0471E+03
                        (  98.029% of Nominal)

Pass    9                .1283  ( .71 sigma)  lower  at F =    1.0965E+03
                        (  98.196% of Nominal)

Pass    5                .127   ( .70 sigma)  lower  at F =  977.24
                        (  98.362% of Nominal)

Pass    2                .0305  ( .17 sigma)  lower  at F =    1.0233E+03
                        (  99.625% of Nominal)

Pass    6                .0292  ( .16 sigma)  lower  at F =  933.25
                        (  99.556% of Nominal)



          JOB CONCLUDED

**** 05/15/18 22:47:02 ******* PSpice Lite (March 2016) ******* ID# 10813 ****

 *----------------------------


 ****     JOB STATISTICS SUMMARY


******************************************************************************



  Total job time (using Solver 1)   =         .34
