
**** 05/15/18 22:51:35 ******* PSpice Lite (March 2016) ******* ID# 10813 ****

 *----------------------------


 ****     CIRCUIT DESCRIPTION


******************************************************************************



* HightPass 12                          -
*                               -
* Author: Ruben Kindt           -
* Date: 24/04/2018                      -
*----------------------------
*
*--------- MODELS for passive components ---------
.model rmod  res(r = 1k    DEV  5%)
.model cmod  cap(c = 1n    DEV 20%)
.inc TL084.cir

**** INCLUDING TL084.cir ****
* TL084 OPERATIONAL AMPLIFIER "MACROMODEL" SUBCIRCUIT
* CREATED USING PARTS RELEASE 4.01 ON 06/16/89 AT 13:08
* (REV N/A)      SUPPLY VOLTAGE: +/-15V
* CONNECTIONS:   NON-INVERTING INPUT
*                | INVERTING INPUT
*                | | POSITIVE POWER SUPPLY
*                | | | NEGATIVE POWER SUPPLY
*                | | | | OUTPUT
*                | | | | |
.SUBCKT TL084    1 2 3 4 5
*
  C1   11 12 3.498E-12
  C2    6  7 15.00E-12
  DC    5 53 DX
  DE   54  5 DX
  DLP  90 91 DX
  DLN  92 90 DX
  DP    4  3 DX
  EGND 99  0 POLY(2) (3,0) (4,0) 0 .5 .5
  FB    7 99 POLY(5) VB VC VE VLP VLN 0 4.715E6 -5E6 5E6 5E6 -5E6
  GA    6  0 11 12 282.8E-6
  GCM   0  6 10 99 8.942E-9
  ISS   3 10 DC 195.0E-6
  HLIM 90  0 VLIM 1K
  J1   11  2 10 JX
  J2   12  1 10 JX
  R2    6  9 100.0E3
  RD1   4 11 3.536E3
  RD2   4 12 3.536E3
  RO1   8  5 150
  RO2   7 99 150
  RP    3  4 2.143E3
  RSS  10 99 1.026E6
  VB    9  0 DC 0
  VC    3 53 DC 2.200
  VE   54  4 DC 2.200
  VLIM  7  8 DC 0
  VLP  91  0 DC 25
  VLN   0 92 DC 25
.MODEL DX D(IS=800.0E-18)
.MODEL JX PJF(IS=15.00E-12 BETA=270.1E-6 VTO=-1)
.ENDS

**** RESUMING AFtrap_12_mcr5_tl084.cir ****
*--------- NETLISTS ------------------------------
*--- netlist bridged T-network - H(fn) = 1/100 ---
*.SUBCKT highPass12 1 100 5
Vcc 20 0  DC  15V
Vee 30 0  DC -15V
* CONNECTIONS:   NON-INVERTING INPUT
*                | INVERTING INPUT
*                | | POSITIVE POWER SUPPLY
*                | | | NEGATIVE POWER SUPPLY
*                | | | | OUTPUT
*                | | | | 


Xopamp1  7  2  20  30  5 TL084  
Xopamp2  0  6  20  30  8 TL084  
Xopamp3  0  9  20  30  4 TL084  
*name knoop1 knoop2 model mulitplier
r1   5   6 rmod  100
r2   8   9 rmod  100
r3   1   2 rmod  1
r4   7   0 rmod  1
r5   2   4 rmod  2
r6   2   5 rmod  2
r7   7   8 rmod  24.5

c1   6   8 cmod  1
c2   9   4 cmod  2.53 
*.ends



*--------- testbench BODE & ZIN (H(fn) = 1/100) --
VAC   1  0  AC 1V
*XAC   1  0  15 highPass12
*--------- testbench ZOUT (H(fn) = 1/100) --------
*VIMP  21  0  0V
*IIMP   0 23  AC 1A
*XIMP  21  0  23 tnetwork_h100
*--------- testbench STAP (H(fn) = 1/100) --------
**VTRAN 1  0  PWL(0 0V 0.5ms 0V 0.501ms 1V 6ms 1V)
**XTRAN 31  0  33 tnetwork_h100
*--------- testbench BODE & ZIN (H(fn) = 1/20) ---
*VACh20 41  0  AC 1V
*XACh20 41  0  43 tnetwork_h20
*
*--------- ANALYSIS ------------------------------
.AC DEC 100 10HZ 100MEGHZ
.MC 10 AC V(5) YMAX LIST OUTPUT ALL
.TRAN 0.001ms 6ms
*
*--------- RESULTS -------------------------------
.PROBE
* out tnetwork_h100: V(13)
* out tnetwork_h20:  V(43)
.END

**** 05/15/18 22:51:35 ******* PSpice Lite (March 2016) ******* ID# 10813 ****

 *----------------------------


 ****     Diode MODEL PARAMETERS


******************************************************************************




               Xopamp1.DX      Xopamp2.DX      Xopamp3.DX      
          IS  800.000000E-18  800.000000E-18  800.000000E-18 


**** 05/15/18 22:51:35 ******* PSpice Lite (March 2016) ******* ID# 10813 ****

 *----------------------------


 ****     Junction FET MODEL PARAMETERS


******************************************************************************




               Xopamp1.JX      Xopamp2.JX      Xopamp3.JX      
               PJF             PJF             PJF             
         VTO   -1              -1              -1            
        BETA  270.100000E-06  270.100000E-06  270.100000E-06 
          IS   15.000000E-12   15.000000E-12   15.000000E-12 


**** 05/15/18 22:51:35 ******* PSpice Lite (March 2016) ******* ID# 10813 ****

 *----------------------------


 ****     Resistor MODEL PARAMETERS


******************************************************************************




               rmod            
           R    1.000000E+03 


**** 05/15/18 22:51:35 ******* PSpice Lite (March 2016) ******* ID# 10813 ****

 *----------------------------


 ****     Capacitor MODEL PARAMETERS


******************************************************************************




               cmod            
           C    1.000000E-09 


**** 05/15/18 22:51:35 ******* PSpice Lite (March 2016) ******* ID# 10813 ****

 *----------------------------


 ****     SMALL SIGNAL BIAS SOLUTION       TEMPERATURE =   27.000 DEG C

                      MONTE CARLO NOMINAL

******************************************************************************



 NODE   VOLTAGE     NODE   VOLTAGE     NODE   VOLTAGE     NODE   VOLTAGE


(    1)    0.0000  (    2) 11.53E-06  (    4) 30.75E-06  (    5) 15.48E-06      

(    6) 10.97E-06  (    7) 563.6E-09  (    8) 15.48E-06  (    9) 10.97E-06      

(   20)   15.0000  (   30)  -15.0000  (Xopamp1.6)-2.276E-09                     

(Xopamp1.7) 15.78E-06                 (Xopamp1.8) 15.78E-06                     

(Xopamp1.9)    0.0000                 (Xopamp2.6)-2.219E-09                     

(Xopamp2.7) 15.57E-06                 (Xopamp2.8) 15.57E-06                     

(Xopamp2.9)    0.0000                 (Xopamp3.6)-4.764E-09                     

(Xopamp3.7) 32.19E-06                 (Xopamp3.8) 32.19E-06                     

(Xopamp3.9)    0.0000                 (Xopamp1.10)    -.3986                    

(Xopamp1.11)  -14.6550                (Xopamp1.12)  -14.6550                    

(Xopamp1.53)   12.8000                (Xopamp1.54)  -12.8000                    

(Xopamp1.90) 2.016E-06                (Xopamp1.91)   25.0000                    

(Xopamp1.92)  -25.0000                (Xopamp1.99)    0.0000                    

(Xopamp2.10)    -.3986                (Xopamp2.11)  -14.6550                    

(Xopamp2.12)  -14.6550                (Xopamp2.53)   12.8000                    

(Xopamp2.54)  -12.8000                (Xopamp2.90) 653.7E-09                    

(Xopamp2.91)   25.0000                (Xopamp2.92)  -25.0000                    

(Xopamp2.99)    0.0000                (Xopamp3.10)    -.3986                    

(Xopamp3.11)  -14.6550                (Xopamp3.12)  -14.6550                    

(Xopamp3.53)   12.8000                (Xopamp3.54)  -12.8000                    

(Xopamp3.90) 9.608E-06                (Xopamp3.91)   25.0000                    

(Xopamp3.92)  -25.0000                (Xopamp3.99)    0.0000                




    VOLTAGE SOURCE CURRENTS
    NAME         CURRENT

    Vcc         -4.258E-02
    Vee          4.258E-02
    VAC          1.153E-08
    Xopamp1.VB  -2.277E-14
    Xopamp1.VC   1.280E-11
    Xopamp1.VE   1.280E-11
    Xopamp1.VLIM   2.016E-09
    Xopamp1.VLP  -2.500E-11
    Xopamp1.VLN  -2.500E-11
    Xopamp2.VB  -2.219E-14
    Xopamp2.VC   1.280E-11
    Xopamp2.VE   1.280E-11
    Xopamp2.VLIM   6.537E-10
    Xopamp2.VLP  -2.500E-11
    Xopamp2.VLN  -2.500E-11
    Xopamp3.VB  -4.764E-14
    Xopamp3.VC   1.280E-11
    Xopamp3.VE   1.280E-11
    Xopamp3.VLIM   9.608E-09
    Xopamp3.VLP  -2.500E-11
    Xopamp3.VLN  -2.500E-11

    TOTAL POWER DISSIPATION   1.28E+00  WATTS


**** 05/15/18 22:51:35 ******* PSpice Lite (March 2016) ******* ID# 10813 ****

 *----------------------------


 ****     INITIAL TRANSIENT SOLUTION       TEMPERATURE =   27.000 DEG C

                      MONTE CARLO NOMINAL

******************************************************************************



 NODE   VOLTAGE     NODE   VOLTAGE     NODE   VOLTAGE     NODE   VOLTAGE


(    1)    0.0000  (    2) 11.53E-06  (    4) 30.75E-06  (    5) 15.48E-06      

(    6) 10.97E-06  (    7) 563.6E-09  (    8) 15.48E-06  (    9) 10.97E-06      

(   20)   15.0000  (   30)  -15.0000  (Xopamp1.6)-2.279E-09                     

(Xopamp1.7) 15.78E-06                 (Xopamp1.8) 15.78E-06                     

(Xopamp1.9)    0.0000                 (Xopamp2.6)-2.219E-09                     

(Xopamp2.7) 15.57E-06                 (Xopamp2.8) 15.57E-06                     

(Xopamp2.9)    0.0000                 (Xopamp3.6)-4.747E-09                     

(Xopamp3.7) 32.19E-06                 (Xopamp3.8) 32.19E-06                     

(Xopamp3.9)    0.0000                 (Xopamp1.10)    -.3986                    

(Xopamp1.11)  -14.6550                (Xopamp1.12)  -14.6550                    

(Xopamp1.53)   12.8000                (Xopamp1.54)  -12.8000                    

(Xopamp1.90) 2.016E-06                (Xopamp1.91)   25.0000                    

(Xopamp1.92)  -25.0000                (Xopamp1.99)    0.0000                    

(Xopamp2.10)    -.3986                (Xopamp2.11)  -14.6550                    

(Xopamp2.12)  -14.6550                (Xopamp2.53)   12.8000                    

(Xopamp2.54)  -12.8000                (Xopamp2.90) 653.7E-09                    

(Xopamp2.91)   25.0000                (Xopamp2.92)  -25.0000                    

(Xopamp2.99)    0.0000                (Xopamp3.10)    -.3986                    

(Xopamp3.11)  -14.6550                (Xopamp3.12)  -14.6550                    

(Xopamp3.53)   12.8000                (Xopamp3.54)  -12.8000                    

(Xopamp3.90) 9.608E-06                (Xopamp3.91)   25.0000                    

(Xopamp3.92)  -25.0000                (Xopamp3.99)    0.0000                




    VOLTAGE SOURCE CURRENTS
    NAME         CURRENT

    Vcc         -4.258E-02
    Vee          4.258E-02
    VAC          1.153E-08
    Xopamp1.VB  -2.277E-14
    Xopamp1.VC   1.280E-11
    Xopamp1.VE   1.280E-11
    Xopamp1.VLIM   2.016E-09
    Xopamp1.VLP  -2.500E-11
    Xopamp1.VLN  -2.500E-11
    Xopamp2.VB  -2.219E-14
    Xopamp2.VC   1.280E-11
    Xopamp2.VE   1.280E-11
    Xopamp2.VLIM   6.537E-10
    Xopamp2.VLP  -2.500E-11
    Xopamp2.VLN  -2.500E-11
    Xopamp3.VB  -4.764E-14
    Xopamp3.VC   1.280E-11
    Xopamp3.VE   1.280E-11
    Xopamp3.VLIM   9.608E-09
    Xopamp3.VLP  -2.500E-11
    Xopamp3.VLN  -2.500E-11

    TOTAL POWER DISSIPATION   1.28E+00  WATTS


**** 05/15/18 22:51:35 ******* PSpice Lite (March 2016) ******* ID# 10813 ****

 *----------------------------


 ****     UPDATED MODEL PARAMETERS         TEMPERATURE =   27.000 DEG C

                      MONTE CARLO NOMINAL

******************************************************************************



     **** CURRENT MODEL PARAMETERS FOR DEVICES REFERENCING cmod
                                    c1           c2      
                  C             1.0000E-09   1.0000E-09  
                               
    
     **** CURRENT MODEL PARAMETERS FOR DEVICES REFERENCING rmod
                                    r1           r2      r3           
                  R             1.0000E+03   1.0000E+03   1.0000E+03  

    
                                    r4           r5      r6           
                  R             1.0000E+03   1.0000E+03   1.0000E+03  

    
                                    r7                                
                  R             1.0000E+03  

    

**** 05/15/18 22:51:35 ******* PSpice Lite (March 2016) ******* ID# 10813 ****

 *----------------------------


 ****     SMALL SIGNAL BIAS SOLUTION       TEMPERATURE =   27.000 DEG C

                      MONTE CARLO PASS 2

******************************************************************************



 NODE   VOLTAGE     NODE   VOLTAGE     NODE   VOLTAGE     NODE   VOLTAGE


(    1)    0.0000  (    2) 11.56E-06  (    4) 30.95E-06  (    5) 15.54E-06      

(    6) 10.97E-06  (    7) 591.6E-09  (    8) 15.65E-06  (    9) 10.97E-06      

(   20)   15.0000  (   30)  -15.0000  (Xopamp1.6)-2.286E-09                     

(Xopamp1.7) 15.84E-06                 (Xopamp1.8) 15.84E-06                     

(Xopamp1.9)    0.0000                 (Xopamp2.6)-2.245E-09                     

(Xopamp2.7) 15.75E-06                 (Xopamp2.8) 15.75E-06                     

(Xopamp2.9)    0.0000                 (Xopamp3.6)-4.807E-09                     

(Xopamp3.7) 32.45E-06                 (Xopamp3.8) 32.45E-06                     

(Xopamp3.9)    0.0000                 (Xopamp1.10)    -.3986                    

(Xopamp1.11)  -14.6550                (Xopamp1.12)  -14.6550                    

(Xopamp1.53)   12.8000                (Xopamp1.54)  -12.8000                    

(Xopamp1.90) 2.006E-06                (Xopamp1.91)   25.0000                    

(Xopamp1.92)  -25.0000                (Xopamp1.99)    0.0000                    

(Xopamp2.10)    -.3986                (Xopamp2.11)  -14.6550                    

(Xopamp2.12)  -14.6550                (Xopamp2.53)   12.8000                    

(Xopamp2.54)  -12.8000                (Xopamp2.90) 673.6E-09                    

(Xopamp2.91)   25.0000                (Xopamp2.92)  -25.0000                    

(Xopamp2.99)    0.0000                (Xopamp3.10)    -.3986                    

(Xopamp3.11)  -14.6550                (Xopamp3.12)  -14.6550                    

(Xopamp3.53)   12.8000                (Xopamp3.54)  -12.8000                    

(Xopamp3.90) 9.947E-06                (Xopamp3.91)   25.0000                    

(Xopamp3.92)  -25.0000                (Xopamp3.99)    0.0000                




    VOLTAGE SOURCE CURRENTS
    NAME         CURRENT

    Vcc         -4.258E-02
    Vee          4.258E-02
    VAC          1.186E-08
    Xopamp1.VB  -2.286E-14
    Xopamp1.VC   1.280E-11
    Xopamp1.VE   1.280E-11
    Xopamp1.VLIM   2.006E-09
    Xopamp1.VLP  -2.500E-11
    Xopamp1.VLN  -2.500E-11
    Xopamp2.VB  -2.245E-14
    Xopamp2.VC   1.280E-11
    Xopamp2.VE   1.280E-11
    Xopamp2.VLIM   6.736E-10
    Xopamp2.VLP  -2.500E-11
    Xopamp2.VLN  -2.500E-11
    Xopamp3.VB  -4.807E-14
    Xopamp3.VC   1.280E-11
    Xopamp3.VE   1.280E-11
    Xopamp3.VLIM   9.947E-09
    Xopamp3.VLP  -2.500E-11
    Xopamp3.VLN  -2.500E-11

    TOTAL POWER DISSIPATION   1.28E+00  WATTS


**** 05/15/18 22:51:35 ******* PSpice Lite (March 2016) ******* ID# 10813 ****

 *----------------------------


 ****     UPDATED MODEL PARAMETERS         TEMPERATURE =   27.000 DEG C

                      MONTE CARLO PASS 2

******************************************************************************



     **** CURRENT MODEL PARAMETERS FOR DEVICES REFERENCING cmod
                                    c1           c2      
                  C             9.7702E-10   9.9044E-10  
                               
    
     **** CURRENT MODEL PARAMETERS FOR DEVICES REFERENCING rmod
                                    r1           r2      r3           
                  R             1.0137E+03   1.0386E+03   9.7465E+02  

    
                                    r4           r5      r6           
                  R             1.0139E+03   9.7469E+02   1.0138E+03  

    
                                    r7                                
                  R             9.7778E+02  

    

**** 05/15/18 22:51:35 ******* PSpice Lite (March 2016) ******* ID# 10813 ****

 *----------------------------


 ****     SMALL SIGNAL BIAS SOLUTION       TEMPERATURE =   27.000 DEG C

                      MONTE CARLO PASS 3

******************************************************************************



 NODE   VOLTAGE     NODE   VOLTAGE     NODE   VOLTAGE     NODE   VOLTAGE


(    1)    0.0000  (    2) 11.53E-06  (    4) 31.34E-06  (    5) 15.66E-06      

(    6) 10.97E-06  (    7) 555.1E-09  (    8) 15.55E-06  (    9) 10.97E-06      

(   20)   15.0000  (   30)  -15.0000  (Xopamp1.6)-2.310E-09                     

(Xopamp1.7) 15.98E-06                 (Xopamp1.8) 15.98E-06                     

(Xopamp1.9)    0.0000                 (Xopamp2.6)-2.215E-09                     

(Xopamp2.7) 15.65E-06                 (Xopamp2.8) 15.65E-06                     

(Xopamp2.9)    0.0000                 (Xopamp3.6)-4.849E-09                     

(Xopamp3.7) 32.79E-06                 (Xopamp3.8) 32.79E-06                     

(Xopamp3.9)    0.0000                 (Xopamp1.10)    -.3986                    

(Xopamp1.11)  -14.6550                (Xopamp1.12)  -14.6550                    

(Xopamp1.53)   12.8000                (Xopamp1.54)  -12.8000                    

(Xopamp1.90) 2.181E-06                (Xopamp1.91)   25.0000                    

(Xopamp1.92)  -25.0000                (Xopamp1.99)    0.0000                    

(Xopamp2.10)    -.3986                (Xopamp2.11)  -14.6550                    

(Xopamp2.12)  -14.6550                (Xopamp2.53)   12.8000                    

(Xopamp2.54)  -12.8000                (Xopamp2.90) 654.4E-09                    

(Xopamp2.91)   25.0000                (Xopamp2.92)  -25.0000                    

(Xopamp2.99)    0.0000                (Xopamp3.10)    -.3986                    

(Xopamp3.11)  -14.6550                (Xopamp3.12)  -14.6550                    

(Xopamp3.53)   12.8000                (Xopamp3.54)  -12.8000                    

(Xopamp3.90) 9.634E-06                (Xopamp3.91)   25.0000                    

(Xopamp3.92)  -25.0000                (Xopamp3.99)    0.0000                




    VOLTAGE SOURCE CURRENTS
    NAME         CURRENT

    Vcc         -4.258E-02
    Vee          4.258E-02
    VAC          1.172E-08
    Xopamp1.VB  -2.310E-14
    Xopamp1.VC   1.280E-11
    Xopamp1.VE   1.280E-11
    Xopamp1.VLIM   2.181E-09
    Xopamp1.VLP  -2.500E-11
    Xopamp1.VLN  -2.500E-11
    Xopamp2.VB  -2.230E-14
    Xopamp2.VC   1.280E-11
    Xopamp2.VE   1.280E-11
    Xopamp2.VLIM   6.544E-10
    Xopamp2.VLP  -2.500E-11
    Xopamp2.VLN  -2.500E-11
    Xopamp3.VB  -4.849E-14
    Xopamp3.VC   1.280E-11
    Xopamp3.VE   1.280E-11
    Xopamp3.VLIM   9.634E-09
    Xopamp3.VLP  -2.500E-11
    Xopamp3.VLN  -2.500E-11

    TOTAL POWER DISSIPATION   1.28E+00  WATTS


**** 05/15/18 22:51:35 ******* PSpice Lite (March 2016) ******* ID# 10813 ****

 *----------------------------


 ****     UPDATED MODEL PARAMETERS         TEMPERATURE =   27.000 DEG C

                      MONTE CARLO PASS 3

******************************************************************************



     **** CURRENT MODEL PARAMETERS FOR DEVICES REFERENCING cmod
                                    c1           c2      
                  C             1.0575E-09   8.5116E-10  
                               
    
     **** CURRENT MODEL PARAMETERS FOR DEVICES REFERENCING rmod
                                    r1           r2      r3           
                  R             1.0399E+03   1.0168E+03   9.8309E+02  

    
                                    r4           r5      r6           
                  R             9.8383E+02   1.0286E+03   9.6699E+02  

    
                                    r7                                
                  R             1.0045E+03  

    

**** 05/15/18 22:51:35 ******* PSpice Lite (March 2016) ******* ID# 10813 ****

 *----------------------------


 ****     SMALL SIGNAL BIAS SOLUTION       TEMPERATURE =   27.000 DEG C

                      MONTE CARLO PASS 4

******************************************************************************



 NODE   VOLTAGE     NODE   VOLTAGE     NODE   VOLTAGE     NODE   VOLTAGE


(    1)    0.0000  (    2) 11.56E-06  (    4) 30.29E-06  (    5) 15.58E-06      

(    6) 10.97E-06  (    7) 586.7E-09  (    8) 15.45E-06  (    9) 10.97E-06      

(   20)   15.0000  (   30)  -15.0000  (Xopamp1.6)-2.293E-09                     

(Xopamp1.7) 15.89E-06                 (Xopamp1.8) 15.89E-06                     

(Xopamp1.9)    0.0000                 (Xopamp2.6)-2.217E-09                     

(Xopamp2.7) 15.55E-06                 (Xopamp2.8) 15.55E-06                     

(Xopamp2.9)    0.0000                 (Xopamp3.6)-4.656E-09                     

(Xopamp3.7) 31.70E-06                 (Xopamp3.8) 31.70E-06                     

(Xopamp3.9)    0.0000                 (Xopamp1.10)    -.3986                    

(Xopamp1.11)  -14.6550                (Xopamp1.12)  -14.6550                    

(Xopamp1.53)   12.8000                (Xopamp1.54)  -12.8000                    

(Xopamp1.90) 2.012E-06                (Xopamp1.91)   25.0000                    

(Xopamp1.92)  -25.0000                (Xopamp1.99)    0.0000                    

(Xopamp2.10)    -.3986                (Xopamp2.11)  -14.6550                    

(Xopamp2.12)  -14.6550                (Xopamp2.53)   12.8000                    

(Xopamp2.54)  -12.8000                (Xopamp2.90) 669.8E-09                    

(Xopamp2.91)   25.0000                (Xopamp2.92)  -25.0000                    

(Xopamp2.99)    0.0000                (Xopamp3.10)    -.3986                    

(Xopamp3.11)  -14.6550                (Xopamp3.12)  -14.6550                    

(Xopamp3.53)   12.8000                (Xopamp3.54)  -12.8000                    

(Xopamp3.90) 9.378E-06                (Xopamp3.91)   25.0000                    

(Xopamp3.92)  -25.0000                (Xopamp3.99)    0.0000                




    VOLTAGE SOURCE CURRENTS
    NAME         CURRENT

    Vcc         -4.258E-02
    Vee          4.258E-02
    VAC          1.130E-08
    Xopamp1.VB  -2.293E-14
    Xopamp1.VC   1.280E-11
    Xopamp1.VE   1.280E-11
    Xopamp1.VLIM   2.012E-09
    Xopamp1.VLP  -2.500E-11
    Xopamp1.VLN  -2.500E-11
    Xopamp2.VB  -2.217E-14
    Xopamp2.VC   1.280E-11
    Xopamp2.VE   1.280E-11
    Xopamp2.VLIM   6.698E-10
    Xopamp2.VLP  -2.500E-11
    Xopamp2.VLN  -2.500E-11
    Xopamp3.VB  -4.689E-14
    Xopamp3.VC   1.280E-11
    Xopamp3.VE   1.280E-11
    Xopamp3.VLIM   9.378E-09
    Xopamp3.VLP  -2.500E-11
    Xopamp3.VLN  -2.500E-11

    TOTAL POWER DISSIPATION   1.28E+00  WATTS


**** 05/15/18 22:51:35 ******* PSpice Lite (March 2016) ******* ID# 10813 ****

 *----------------------------


 ****     UPDATED MODEL PARAMETERS         TEMPERATURE =   27.000 DEG C

                      MONTE CARLO PASS 4

******************************************************************************



     **** CURRENT MODEL PARAMETERS FOR DEVICES REFERENCING cmod
                                    c1           c2      
                  C             8.8436E-10   8.2988E-10  
                               
    
     **** CURRENT MODEL PARAMETERS FOR DEVICES REFERENCING rmod
                                    r1           r2      r3           
                  R             1.0240E+03   9.9470E+02   1.0227E+03  

    
                                    r4           r5      r6           
                  R             1.0120E+03   9.9877E+02   1.0236E+03  

    
                                    r7                                
                  R             9.7114E+02  

    

**** 05/15/18 22:51:35 ******* PSpice Lite (March 2016) ******* ID# 10813 ****

 *----------------------------


 ****     SMALL SIGNAL BIAS SOLUTION       TEMPERATURE =   27.000 DEG C

                      MONTE CARLO PASS 5

******************************************************************************



 NODE   VOLTAGE     NODE   VOLTAGE     NODE   VOLTAGE     NODE   VOLTAGE


(    1)    0.0000  (    2) 11.57E-06  (    4) 31.36E-06  (    5) 15.29E-06      

(    6) 10.97E-06  (    7) 596.7E-09  (    8) 15.45E-06  (    9) 10.97E-06      

(   20)   15.0000  (   30)  -15.0000  (Xopamp1.6)-2.245E-09                     

(Xopamp1.7) 15.57E-06                 (Xopamp1.8) 15.57E-06                     

(Xopamp1.9)    0.0000                 (Xopamp2.6)-2.216E-09                     

(Xopamp2.7) 15.55E-06                 (Xopamp2.8) 15.55E-06                     

(Xopamp2.9)    0.0000                 (Xopamp3.6)-4.883E-09                     

(Xopamp3.7) 32.84E-06                 (Xopamp3.8) 32.84E-06                     

(Xopamp3.9)    0.0000                 (Xopamp1.10)    -.3986                    

(Xopamp1.11)  -14.6550                (Xopamp1.12)  -14.6550                    

(Xopamp1.53)   12.8000                (Xopamp1.54)  -12.8000                    

(Xopamp1.90) 1.865E-06                (Xopamp1.91)   25.0000                    

(Xopamp1.92)  -25.0000                (Xopamp1.99)    0.0000                    

(Xopamp2.10)    -.3986                (Xopamp2.11)  -14.6550                    

(Xopamp2.12)  -14.6550                (Xopamp2.53)   12.8000                    

(Xopamp2.54)  -12.8000                (Xopamp2.90) 668.3E-09                    

(Xopamp2.91)   25.0000                (Xopamp2.92)  -25.0000                    

(Xopamp2.99)    0.0000                (Xopamp3.10)    -.3986                    

(Xopamp3.11)  -14.6550                (Xopamp3.12)  -14.6550                    

(Xopamp3.53)   12.8000                (Xopamp3.54)  -12.8000                    

(Xopamp3.90) 9.871E-06                (Xopamp3.91)   25.0000                    

(Xopamp3.92)  -25.0000                (Xopamp3.99)    0.0000                




    VOLTAGE SOURCE CURRENTS
    NAME         CURRENT

    Vcc         -4.258E-02
    Vee          4.258E-02
    VAC          1.165E-08
    Xopamp1.VB  -2.245E-14
    Xopamp1.VC   1.280E-11
    Xopamp1.VE   1.280E-11
    Xopamp1.VLIM   1.865E-09
    Xopamp1.VLP  -2.500E-11
    Xopamp1.VLN  -2.500E-11
    Xopamp2.VB  -2.216E-14
    Xopamp2.VC   1.280E-11
    Xopamp2.VE   1.280E-11
    Xopamp2.VLIM   6.683E-10
    Xopamp2.VLP  -2.500E-11
    Xopamp2.VLN  -2.500E-11
    Xopamp3.VB  -4.861E-14
    Xopamp3.VC   1.280E-11
    Xopamp3.VE   1.280E-11
    Xopamp3.VLIM   9.871E-09
    Xopamp3.VLP  -2.500E-11
    Xopamp3.VLN  -2.500E-11

    TOTAL POWER DISSIPATION   1.28E+00  WATTS


**** 05/15/18 22:51:35 ******* PSpice Lite (March 2016) ******* ID# 10813 ****

 *----------------------------


 ****     UPDATED MODEL PARAMETERS         TEMPERATURE =   27.000 DEG C

                      MONTE CARLO PASS 5

******************************************************************************



     **** CURRENT MODEL PARAMETERS FOR DEVICES REFERENCING cmod
                                    c1           c2      
                  C             1.0671E-09   1.1356E-09  
                               
    
     **** CURRENT MODEL PARAMETERS FOR DEVICES REFERENCING rmod
                                    r1           r2      r3           
                  R             9.5888E+02   9.9353E+02   9.9332E+02  

    
                                    r4           r5      r6           
                  R             1.0320E+03   1.0024E+03   1.0231E+03  

    
                                    r7                                
                  R             9.7253E+02  

    

**** 05/15/18 22:51:35 ******* PSpice Lite (March 2016) ******* ID# 10813 ****

 *----------------------------


 ****     SMALL SIGNAL BIAS SOLUTION       TEMPERATURE =   27.000 DEG C

                      MONTE CARLO PASS 6

******************************************************************************



 NODE   VOLTAGE     NODE   VOLTAGE     NODE   VOLTAGE     NODE   VOLTAGE


(    1)    0.0000  (    2) 11.54E-06  (    4) 29.07E-06  (    5) 15.56E-06      

(    6) 10.97E-06  (    7) 564.5E-09  (    8) 15.48E-06  (    9) 10.97E-06      

(   20)   15.0000  (   30)  -15.0000  (Xopamp1.6)-2.289E-09                     

(Xopamp1.7) 15.86E-06                 (Xopamp1.8) 15.86E-06                     

(Xopamp1.9)    0.0000                 (Xopamp2.6)-2.221E-09                     

(Xopamp2.7) 15.58E-06                 (Xopamp2.8) 15.58E-06                     

(Xopamp2.9)    0.0000                 (Xopamp3.6)-4.491E-09                     

(Xopamp3.7) 30.43E-06                 (Xopamp3.8) 30.43E-06                     

(Xopamp3.9)    0.0000                 (Xopamp1.10)    -.3986                    

(Xopamp1.11)  -14.6550                (Xopamp1.12)  -14.6550                    

(Xopamp1.53)   12.8000                (Xopamp1.54)  -12.8000                    

(Xopamp1.90) 2.002E-06                (Xopamp1.91)   25.0000                    

(Xopamp1.92)  -25.0000                (Xopamp1.99)    0.0000                    

(Xopamp2.10)    -.3986                (Xopamp2.11)  -14.6550                    

(Xopamp2.12)  -14.6550                (Xopamp2.53)   12.8000                    

(Xopamp2.54)  -12.8000                (Xopamp2.90) 680.1E-09                    

(Xopamp2.91)   25.0000                (Xopamp2.92)  -25.0000                    

(Xopamp2.99)    0.0000                (Xopamp3.10)    -.3986                    

(Xopamp3.11)  -14.6550                (Xopamp3.12)  -14.6550                    

(Xopamp3.53)   12.8000                (Xopamp3.54)  -12.8000                    

(Xopamp3.90) 9.100E-06                (Xopamp3.91)   25.0000                    

(Xopamp3.92)  -25.0000                (Xopamp3.99)    0.0000                




    VOLTAGE SOURCE CURRENTS
    NAME         CURRENT

    Vcc         -4.258E-02
    Vee          4.258E-02
    VAC          1.101E-08
    Xopamp1.VB  -2.289E-14
    Xopamp1.VC   1.280E-11
    Xopamp1.VE   1.280E-11
    Xopamp1.VLIM   2.002E-09
    Xopamp1.VLP  -2.500E-11
    Xopamp1.VLN  -2.500E-11
    Xopamp2.VB  -2.221E-14
    Xopamp2.VC   1.280E-11
    Xopamp2.VE   1.280E-11
    Xopamp2.VLIM   6.801E-10
    Xopamp2.VLP  -2.500E-11
    Xopamp2.VLN  -2.500E-11
    Xopamp3.VB  -4.504E-14
    Xopamp3.VC   1.280E-11
    Xopamp3.VE   1.280E-11
    Xopamp3.VLIM   9.100E-09
    Xopamp3.VLP  -2.500E-11
    Xopamp3.VLN  -2.500E-11

    TOTAL POWER DISSIPATION   1.28E+00  WATTS


**** 05/15/18 22:51:35 ******* PSpice Lite (March 2016) ******* ID# 10813 ****

 *----------------------------


 ****     UPDATED MODEL PARAMETERS         TEMPERATURE =   27.000 DEG C

                      MONTE CARLO PASS 6

******************************************************************************



     **** CURRENT MODEL PARAMETERS FOR DEVICES REFERENCING cmod
                                    c1           c2      
                  C             9.6853E-10   1.1978E-09  
                               
    
     **** CURRENT MODEL PARAMETERS FOR DEVICES REFERENCING rmod
                                    r1           r2      r3           
                  R             1.0187E+03   1.0011E+03   1.0475E+03  

    
                                    r4           r5      r6           
                  R             9.5668E+02   9.6330E+02   1.0285E+03  

    
                                    r7                                
                  R             9.5868E+02  

    

**** 05/15/18 22:51:35 ******* PSpice Lite (March 2016) ******* ID# 10813 ****

 *----------------------------


 ****     SMALL SIGNAL BIAS SOLUTION       TEMPERATURE =   27.000 DEG C

                      MONTE CARLO PASS 7

******************************************************************************



 NODE   VOLTAGE     NODE   VOLTAGE     NODE   VOLTAGE     NODE   VOLTAGE


(    1)    0.0000  (    2) 11.58E-06  (    4) 29.64E-06  (    5) 15.56E-06      

(    6) 10.97E-06  (    7) 606.7E-09  (    8) 15.58E-06  (    9) 10.97E-06      

(   20)   15.0000  (   30)  -15.0000  (Xopamp1.6)-2.294E-09                     

(Xopamp1.7) 15.87E-06                 (Xopamp1.8) 15.87E-06                     

(Xopamp1.9)    0.0000                 (Xopamp2.6)-2.235E-09                     

(Xopamp2.7) 15.68E-06                 (Xopamp2.8) 15.68E-06                     

(Xopamp2.9)    0.0000                 (Xopamp3.6)-4.585E-09                     

(Xopamp3.7) 31.06E-06                 (Xopamp3.8) 31.06E-06                     

(Xopamp3.9)    0.0000                 (Xopamp1.10)    -.3986                    

(Xopamp1.11)  -14.6550                (Xopamp1.12)  -14.6550                    

(Xopamp1.53)   12.8000                (Xopamp1.54)  -12.8000                    

(Xopamp1.90) 2.103E-06                (Xopamp1.91)   25.0000                    

(Xopamp1.92)  -25.0000                (Xopamp1.99)    0.0000                    

(Xopamp2.10)    -.3986                (Xopamp2.11)  -14.6550                    

(Xopamp2.12)  -14.6550                (Xopamp2.53)   12.8000                    

(Xopamp2.54)  -12.8000                (Xopamp2.90) 682.5E-09                    

(Xopamp2.91)   25.0000                (Xopamp2.92)  -25.0000                    

(Xopamp2.99)    0.0000                (Xopamp3.10)    -.3986                    

(Xopamp3.11)  -14.6550                (Xopamp3.12)  -14.6550                    

(Xopamp3.53)   12.8000                (Xopamp3.54)  -12.8000                    

(Xopamp3.90) 9.473E-06                (Xopamp3.91)   25.0000                    

(Xopamp3.92)  -25.0000                (Xopamp3.99)    0.0000                




    VOLTAGE SOURCE CURRENTS
    NAME         CURRENT

    Vcc         -4.258E-02
    Vee          4.258E-02
    VAC          1.149E-08
    Xopamp1.VB  -2.293E-14
    Xopamp1.VC   1.280E-11
    Xopamp1.VE   1.280E-11
    Xopamp1.VLIM   2.103E-09
    Xopamp1.VLP  -2.500E-11
    Xopamp1.VLN  -2.500E-11
    Xopamp2.VB  -2.235E-14
    Xopamp2.VC   1.280E-11
    Xopamp2.VE   1.280E-11
    Xopamp2.VLIM   6.825E-10
    Xopamp2.VLP  -2.500E-11
    Xopamp2.VLN  -2.500E-11
    Xopamp3.VB  -4.600E-14
    Xopamp3.VC   1.280E-11
    Xopamp3.VE   1.280E-11
    Xopamp3.VLIM   9.473E-09
    Xopamp3.VLP  -2.500E-11
    Xopamp3.VLN  -2.500E-11

    TOTAL POWER DISSIPATION   1.28E+00  WATTS


**** 05/15/18 22:51:35 ******* PSpice Lite (March 2016) ******* ID# 10813 ****

 *----------------------------


 ****     UPDATED MODEL PARAMETERS         TEMPERATURE =   27.000 DEG C

                      MONTE CARLO PASS 7

******************************************************************************



     **** CURRENT MODEL PARAMETERS FOR DEVICES REFERENCING cmod
                                    c1           c2      
                  C             9.6668E-10   1.0092E-09  
                               
    
     **** CURRENT MODEL PARAMETERS FOR DEVICES REFERENCING rmod
                                    r1           r2      r3           
                  R             1.0184E+03   1.0229E+03   1.0080E+03  

    
                                    r4           r5      r6           
                  R             1.0241E+03   9.5324E+02   9.6718E+02  

    
                                    r7                                
                  R             9.5872E+02  

    

**** 05/15/18 22:51:35 ******* PSpice Lite (March 2016) ******* ID# 10813 ****

 *----------------------------


 ****     SMALL SIGNAL BIAS SOLUTION       TEMPERATURE =   27.000 DEG C

                      MONTE CARLO PASS 8

******************************************************************************



 NODE   VOLTAGE     NODE   VOLTAGE     NODE   VOLTAGE     NODE   VOLTAGE


(    1)    0.0000  (    2) 11.50E-06  (    4) 30.66E-06  (    5) 15.63E-06      

(    6) 10.97E-06  (    7) 529.9E-09  (    8) 15.54E-06  (    9) 10.97E-06      

(   20)   15.0000  (   30)  -15.0000  (Xopamp1.6)-2.301E-09                     

(Xopamp1.7) 15.94E-06                 (Xopamp1.8) 15.94E-06                     

(Xopamp1.9)    0.0000                 (Xopamp2.6)-2.228E-09                     

(Xopamp2.7) 15.64E-06                 (Xopamp2.8) 15.64E-06                     

(Xopamp2.9)    0.0000                 (Xopamp3.6)-4.720E-09                     

(Xopamp3.7) 32.12E-06                 (Xopamp3.8) 32.12E-06                     

(Xopamp3.9)    0.0000                 (Xopamp1.10)    -.3986                    

(Xopamp1.11)  -14.6550                (Xopamp1.12)  -14.6550                    

(Xopamp1.53)   12.8000                (Xopamp1.54)  -12.8000                    

(Xopamp1.90) 2.035E-06                (Xopamp1.91)   25.0000                    

(Xopamp1.92)  -25.0000                (Xopamp1.99)    0.0000                    

(Xopamp2.10)    -.3986                (Xopamp2.11)  -14.6550                    

(Xopamp2.12)  -14.6550                (Xopamp2.53)   12.8000                    

(Xopamp2.54)  -12.8000                (Xopamp2.90) 638.2E-09                    

(Xopamp2.91)   25.0000                (Xopamp2.92)  -25.0000                    

(Xopamp2.99)    0.0000                (Xopamp3.10)    -.3986                    

(Xopamp3.11)  -14.6550                (Xopamp3.12)  -14.6550                    

(Xopamp3.53)   12.8000                (Xopamp3.54)  -12.8000                    

(Xopamp3.90) 9.746E-06                (Xopamp3.91)   25.0000                    

(Xopamp3.92)  -25.0000                (Xopamp3.99)    0.0000                




    VOLTAGE SOURCE CURRENTS
    NAME         CURRENT

    Vcc         -4.258E-02
    Vee          4.258E-02
    VAC          1.169E-08
    Xopamp1.VB  -2.300E-14
    Xopamp1.VC   1.280E-11
    Xopamp1.VE   1.280E-11
    Xopamp1.VLIM   2.035E-09
    Xopamp1.VLP  -2.500E-11
    Xopamp1.VLN  -2.500E-11
    Xopamp2.VB  -2.228E-14
    Xopamp2.VC   1.280E-11
    Xopamp2.VE   1.280E-11
    Xopamp2.VLIM   6.382E-10
    Xopamp2.VLP  -2.500E-11
    Xopamp2.VLN  -2.500E-11
    Xopamp3.VB  -4.757E-14
    Xopamp3.VC   1.280E-11
    Xopamp3.VE   1.280E-11
    Xopamp3.VLIM   9.746E-09
    Xopamp3.VLP  -2.500E-11
    Xopamp3.VLN  -2.500E-11

    TOTAL POWER DISSIPATION   1.28E+00  WATTS


**** 05/15/18 22:51:35 ******* PSpice Lite (March 2016) ******* ID# 10813 ****

 *----------------------------


 ****     UPDATED MODEL PARAMETERS         TEMPERATURE =   27.000 DEG C

                      MONTE CARLO PASS 8

******************************************************************************



     **** CURRENT MODEL PARAMETERS FOR DEVICES REFERENCING cmod
                                    c1           c2      
                  C             1.0499E-09   9.1610E-10  
                               
    
     **** CURRENT MODEL PARAMETERS FOR DEVICES REFERENCING rmod
                                    r1           r2      r3           
                  R             1.0345E+03   1.0150E+03   9.8371E+02  

    
                                    r4           r5      r6           
                  R             9.6672E+02   9.8291E+02   1.0380E+03  

    
                                    r7                                
                  R             1.0331E+03  

    

**** 05/15/18 22:51:35 ******* PSpice Lite (March 2016) ******* ID# 10813 ****

 *----------------------------


 ****     SMALL SIGNAL BIAS SOLUTION       TEMPERATURE =   27.000 DEG C

                      MONTE CARLO PASS 9

******************************************************************************



 NODE   VOLTAGE     NODE   VOLTAGE     NODE   VOLTAGE     NODE   VOLTAGE


(    1)    0.0000  (    2) 11.55E-06  (    4) 30.81E-06  (    5) 15.44E-06      

(    6) 10.97E-06  (    7) 577.8E-09  (    8) 15.41E-06  (    9) 10.97E-06      

(   20)   15.0000  (   30)  -15.0000  (Xopamp1.6)-2.272E-09                     

(Xopamp1.7) 15.74E-06                 (Xopamp1.8) 15.74E-06                     

(Xopamp1.9)    0.0000                 (Xopamp2.6)-2.211E-09                     

(Xopamp2.7) 15.51E-06                 (Xopamp2.8) 15.51E-06                     

(Xopamp2.9)    0.0000                 (Xopamp3.6)-4.789E-09                     

(Xopamp3.7) 32.20E-06                 (Xopamp3.8) 32.20E-06                     

(Xopamp3.9)    0.0000                 (Xopamp1.10)    -.3986                    

(Xopamp1.11)  -14.6550                (Xopamp1.12)  -14.6550                    

(Xopamp1.53)   12.8000                (Xopamp1.54)  -12.8000                    

(Xopamp1.90) 2.026E-06                (Xopamp1.91)   25.0000                    

(Xopamp1.92)  -25.0000                (Xopamp1.99)    0.0000                    

(Xopamp2.10)    -.3986                (Xopamp2.11)  -14.6550                    

(Xopamp2.12)  -14.6550                (Xopamp2.53)   12.8000                    

(Xopamp2.54)  -12.8000                (Xopamp2.90) 659.7E-09                    

(Xopamp2.91)   25.0000                (Xopamp2.92)  -25.0000                    

(Xopamp2.99)    0.0000                (Xopamp3.10)    -.3986                    

(Xopamp3.11)  -14.6550                (Xopamp3.12)  -14.6550                    

(Xopamp3.53)   12.8000                (Xopamp3.54)  -12.8000                    

(Xopamp3.90) 9.281E-06                (Xopamp3.91)   25.0000                    

(Xopamp3.92)  -25.0000                (Xopamp3.99)    0.0000                




    VOLTAGE SOURCE CURRENTS
    NAME         CURRENT

    Vcc         -4.258E-02
    Vee          4.258E-02
    VAC          1.122E-08
    Xopamp1.VB  -2.273E-14
    Xopamp1.VC   1.280E-11
    Xopamp1.VE   1.280E-11
    Xopamp1.VLIM   2.026E-09
    Xopamp1.VLP  -2.500E-11
    Xopamp1.VLN  -2.500E-11
    Xopamp2.VB  -2.211E-14
    Xopamp2.VC   1.280E-11
    Xopamp2.VE   1.280E-11
    Xopamp2.VLIM   6.597E-10
    Xopamp2.VLP  -2.500E-11
    Xopamp2.VLN  -2.500E-11
    Xopamp3.VB  -4.758E-14
    Xopamp3.VC   1.280E-11
    Xopamp3.VE   1.280E-11
    Xopamp3.VLIM   9.281E-09
    Xopamp3.VLP  -2.500E-11
    Xopamp3.VLN  -2.500E-11

    TOTAL POWER DISSIPATION   1.28E+00  WATTS


**** 05/15/18 22:51:35 ******* PSpice Lite (March 2016) ******* ID# 10813 ****

 *----------------------------


 ****     UPDATED MODEL PARAMETERS         TEMPERATURE =   27.000 DEG C

                      MONTE CARLO PASS 9

******************************************************************************



     **** CURRENT MODEL PARAMETERS FOR DEVICES REFERENCING cmod
                                    c1           c2      
                  C             1.0467E-09   9.3794E-10  
                               
    
     **** CURRENT MODEL PARAMETERS FOR DEVICES REFERENCING rmod
                                    r1           r2      r3           
                  R             9.9199E+02   9.8608E+02   1.0295E+03  

    
                                    r4           r5      r6           
                  R             1.0145E+03   1.0376E+03   9.8231E+02  

    
                                    r7                                
                  R             9.8524E+02  

    

**** 05/15/18 22:51:35 ******* PSpice Lite (March 2016) ******* ID# 10813 ****

 *----------------------------


 ****     SMALL SIGNAL BIAS SOLUTION       TEMPERATURE =   27.000 DEG C

                      MONTE CARLO PASS 10

******************************************************************************



 NODE   VOLTAGE     NODE   VOLTAGE     NODE   VOLTAGE     NODE   VOLTAGE


(    1)    0.0000  (    2) 11.58E-06  (    4) 32.12E-06  (    5) 15.54E-06      

(    6) 10.97E-06  (    7) 609.9E-09  (    8) 15.62E-06  (    9) 10.97E-06      

(   20)   15.0000  (   30)  -15.0000  (Xopamp1.6)-2.285E-09                     

(Xopamp1.7) 15.84E-06                 (Xopamp1.8) 15.84E-06                     

(Xopamp1.9)    0.0000                 (Xopamp2.6)-2.240E-09                     

(Xopamp2.7) 15.72E-06                 (Xopamp2.8) 15.72E-06                     

(Xopamp2.9)    0.0000                 (Xopamp3.6)-4.982E-09                     

(Xopamp3.7) 33.60E-06                 (Xopamp3.8) 33.60E-06                     

(Xopamp3.9)    0.0000                 (Xopamp1.10)    -.3986                    

(Xopamp1.11)  -14.6550                (Xopamp1.12)  -14.6550                    

(Xopamp1.53)   12.8000                (Xopamp1.54)  -12.8000                    

(Xopamp1.90) 1.984E-06                (Xopamp1.91)   25.0000                    

(Xopamp1.92)  -25.0000                (Xopamp1.99)    0.0000                    

(Xopamp2.10)    -.3986                (Xopamp2.11)  -14.6550                    

(Xopamp2.12)  -14.6550                (Xopamp2.53)   12.8000                    

(Xopamp2.54)  -12.8000                (Xopamp2.90) 674.9E-09                    

(Xopamp2.91)   25.0000                (Xopamp2.92)  -25.0000                    

(Xopamp2.99)    0.0000                (Xopamp3.10)    -.3986                    

(Xopamp3.11)  -14.6550                (Xopamp3.12)  -14.6550                    

(Xopamp3.53)   12.8000                (Xopamp3.54)  -12.8000                    

(Xopamp3.90) 9.901E-06                (Xopamp3.91)   25.0000                    

(Xopamp3.92)  -25.0000                (Xopamp3.99)    0.0000                




    VOLTAGE SOURCE CURRENTS
    NAME         CURRENT

    Vcc         -4.258E-02
    Vee          4.258E-02
    VAC          1.180E-08
    Xopamp1.VB  -2.286E-14
    Xopamp1.VC   1.280E-11
    Xopamp1.VE   1.280E-11
    Xopamp1.VLIM   1.984E-09
    Xopamp1.VLP  -2.500E-11
    Xopamp1.VLN  -2.500E-11
    Xopamp2.VB  -2.240E-14
    Xopamp2.VC   1.280E-11
    Xopamp2.VE   1.280E-11
    Xopamp2.VLIM   6.749E-10
    Xopamp2.VLP  -2.500E-11
    Xopamp2.VLN  -2.500E-11
    Xopamp3.VB  -4.970E-14
    Xopamp3.VC   1.280E-11
    Xopamp3.VE   1.280E-11
    Xopamp3.VLIM   9.901E-09
    Xopamp3.VLP  -2.500E-11
    Xopamp3.VLN  -2.500E-11

    TOTAL POWER DISSIPATION   1.28E+00  WATTS


**** 05/15/18 22:51:35 ******* PSpice Lite (March 2016) ******* ID# 10813 ****

 *----------------------------


 ****     UPDATED MODEL PARAMETERS         TEMPERATURE =   27.000 DEG C

                      MONTE CARLO PASS 10

******************************************************************************



     **** CURRENT MODEL PARAMETERS FOR DEVICES REFERENCING cmod
                                    c1           c2      
                  C             1.0218E-09   1.0963E-09  
                               
    
     **** CURRENT MODEL PARAMETERS FOR DEVICES REFERENCING rmod
                                    r1           r2      r3           
                  R             1.0149E+03   1.0309E+03   9.8180E+02  

    
                                    r4           r5      r6           
                  R             1.0429E+03   1.0372E+03   1.0218E+03  

    
                                    r7                                
                  R             9.7233E+02  

    

**** 05/15/18 22:51:35 ******* PSpice Lite (March 2016) ******* ID# 10813 ****

 *----------------------------


 ****     SORTED DEVIATIONS OF V(5)        TEMPERATURE =   27.000 DEG C

                      MONTE CARLO SUMMARY

******************************************************************************





Mean Deviation =    -.3929
Sigma          =    1.7252

 RUN                    MAX DEVIATION FROM NOMINAL

Pass    4               3.9445  (2.29 sigma)  lower  at F =  977.24
                        (  49.122% of Nominal)

Pass   10               1.8693  (1.08 sigma)  higher  at F =  870.96
                        ( 139.96% of Nominal)

Pass    8               1.7843  (1.03 sigma)  higher  at F =    1.0715E+03
                        ( 123.58% of Nominal)

Pass    5               1.4156  ( .82 sigma)  lower  at F =    1.0715E+03
                        (  81.29 % of Nominal)

Pass    6               1.3896  ( .81 sigma)  lower  at F =    1.0715E+03
                        (  81.634% of Nominal)

Pass    3               1.0578  ( .61 sigma)  higher  at F =  977.24
                        ( 113.64% of Nominal)

Pass    7                .7983  ( .46 sigma)  lower  at F =    1.0000E+03
                        (  90.114% of Nominal)

Pass    2                .3801  ( .22 sigma)  lower  at F =  954.99
                        (  94.734% of Nominal)

Pass    9                .3195  ( .19 sigma)  lower  at F =    1.1220E+03
                        (  95.189% of Nominal)



          JOB CONCLUDED

**** 05/15/18 22:51:35 ******* PSpice Lite (March 2016) ******* ID# 10813 ****

 *----------------------------


 ****     JOB STATISTICS SUMMARY


******************************************************************************



  Total job time (using Solver 1)   =         .33
